cand_019_out
     RDKit          3D

 35 37  0  0  0  0  0  0  0  0999 V2000
   52.1600  152.9820   28.8180 O   0  0  0  0  0  0  0  0  0  0  0  0
   52.2700  154.1420   28.4280 C   0  0  0  0  0  0  0  0  0  0  0  0
   51.7680  155.2650   29.2530 C   0  0  0  0  0  0  0  0  0  0  0  0
   51.1650  154.9410   30.4550 O   0  0  0  0  0  0  0  0  0  0  0  0
   51.9090  156.5190   28.7870 C   0  0  0  0  0  0  0  0  0  0  0  0
   51.4340  157.7140   29.5190 C   0  0  0  0  0  0  0  0  0  0  0  0
   52.2580  158.8230   29.7310 C   0  0  0  0  0  0  0  0  0  0  0  0
   51.7810  159.9510   30.4040 C   0  0  0  0  0  0  0  0  0  0  0  0
   50.4640  159.9990   30.8830 C   0  0  0  0  0  0  0  0  0  0  0  0
   49.9780  161.2340   31.5990 C   0  0  0  0  0  0  0  0  0  0  0  0
   50.0040  161.0920   32.9540 F   0  0  0  0  0  0  0  0  0  0  0  0
   49.6090  158.8990   30.6540 C   0  0  0  0  0  0  0  0  0  0  0  0
   48.1720  158.9080   31.1280 C   0  0  0  0  0  0  0  0  0  0  0  0
   48.0740  158.9070   32.4870 F   0  0  0  0  0  0  0  0  0  0  0  0
   47.4800  160.0110   30.7190 F   0  0  0  0  0  0  0  0  0  0  0  0
   50.1090  157.7690   29.9780 C   0  0  0  0  0  0  0  0  0  0  0  0
   52.4920  156.8310   27.5640 O   0  0  0  0  0  0  0  0  0  0  0  0
   52.9730  155.8130   26.7800 C   0  0  0  0  0  0  0  0  0  0  0  0
   53.5590  156.1720   25.5660 C   0  0  0  0  0  0  0  0  0  0  0  0
   54.0680  155.1840   24.7190 C   0  0  0  0  0  0  0  0  0  0  0  0
   53.9900  153.8390   25.0870 C   0  0  0  0  0  0  0  0  0  0  0  0
   53.4040  153.4840   26.3000 C   0  0  0  0  0  0  0  0  0  0  0  0
   53.3610  152.1500   26.5960 O   0  0  0  0  0  0  0  0  0  0  0  0
   52.8950  154.4730   27.1450 C   0  0  0  0  0  0  0  0  0  0  0  0
   51.0590  155.5960   31.1180 H   0  0  0  0  0  0  0  0  0  0  0  0
   53.2947  158.8076   29.3636 H   0  0  0  0  0  0  0  0  0  0  0  0
   52.4472  160.8123   30.5600 H   0  0  0  0  0  0  0  0  0  0  0  0
   50.6222  162.0808   31.3200 H   0  0  0  0  0  0  0  0  0  0  0  0
   48.9338  161.4067   31.2995 H   0  0  0  0  0  0  0  0  0  0  0  0
   47.7486  157.9926   30.6889 H   0  0  0  0  0  0  0  0  0  0  0  0
   49.4450  156.9091   29.8057 H   0  0  0  0  0  0  0  0  0  0  0  0
   53.6203  157.2313   25.2759 H   0  0  0  0  0  0  0  0  0  0  0  0
   54.5305  155.4658   23.7616 H   0  0  0  0  0  0  0  0  0  0  0  0
   54.3906  153.0613   24.4202 H   0  0  0  0  0  0  0  0  0  0  0  0
   53.9830  151.7820   27.1930 H   0  0  0  0  0  0  0  0  0  0  0  0
  1  2  2  0
  2  3  1  0
  3  4  1  0
  3  5  2  0
  5  6  1  0
  6  7  2  0
  7  8  1  0
  8  9  2  0
  9 10  1  0
 10 11  1  0
  9 12  1  0
 12 13  1  0
 13 14  1  0
 13 15  1  0
 12 16  2  0
  5 17  1  0
 17 18  1  0
 18 19  2  0
 19 20  1  0
 20 21  2  0
 21 22  1  0
 22 23  1  0
 22 24  2  0
 24  2  1  0
 16  6  1  0
 24 18  1  0
  4 25  1  0
  7 26  1  0
  8 27  1  0
 10 28  1  0
 10 29  1  0
 13 30  1  0
 16 31  1  0
 19 32  1  0
 20 33  1  0
 21 34  1  0
 23 35  1  0
M  END
>  <meeko>  (1) 
{"is_sidechain": [false], "free_energy": -10.601, "intermolecular_energy": -13.08, "internal_energy": -0.161}

$$$$
cand_019_out
     RDKit          3D

 35 37  0  0  0  0  0  0  0  0999 V2000
   52.5210  160.6430   30.5400 O   0  0  0  0  0  0  0  0  0  0  0  0
   51.7860  159.6800   30.3320 C   0  0  0  0  0  0  0  0  0  0  0  0
   52.2970  158.4820   29.6270 C   0  0  0  0  0  0  0  0  0  0  0  0
   53.6160  158.5130   29.2100 O   0  0  0  0  0  0  0  0  0  0  0  0
   51.4580  157.4520   29.4190 C   0  0  0  0  0  0  0  0  0  0  0  0
   51.8550  156.2120   28.7160 C   0  0  0  0  0  0  0  0  0  0  0  0
   51.5760  154.9460   29.2410 C   0  0  0  0  0  0  0  0  0  0  0  0
   51.9400  153.7890   28.5470 C   0  0  0  0  0  0  0  0  0  0  0  0
   52.5910  153.8670   27.3080 C   0  0  0  0  0  0  0  0  0  0  0  0
   52.9630  152.5990   26.5830 C   0  0  0  0  0  0  0  0  0  0  0  0
   51.9690  151.6670   26.6220 F   0  0  0  0  0  0  0  0  0  0  0  0
   52.8560  155.1360   26.7500 C   0  0  0  0  0  0  0  0  0  0  0  0
   53.5340  155.2780   25.4050 C   0  0  0  0  0  0  0  0  0  0  0  0
   52.6990  154.9830   24.3690 F   0  0  0  0  0  0  0  0  0  0  0  0
   53.9760  156.5470   25.1590 F   0  0  0  0  0  0  0  0  0  0  0  0
   52.4870  156.2920   27.4650 C   0  0  0  0  0  0  0  0  0  0  0  0
   50.1260  157.4430   29.8180 O   0  0  0  0  0  0  0  0  0  0  0  0
   49.6260  158.5360   30.4790 C   0  0  0  0  0  0  0  0  0  0  0  0
   48.2870  158.4800   30.8710 C   0  0  0  0  0  0  0  0  0  0  0  0
   47.7140  159.5600   31.5480 C   0  0  0  0  0  0  0  0  0  0  0  0
   48.4790  160.6930   31.8320 C   0  0  0  0  0  0  0  0  0  0  0  0
   49.8140  160.7450   31.4400 C   0  0  0  0  0  0  0  0  0  0  0  0
   50.5040  161.8850   31.7500 O   0  0  0  0  0  0  0  0  0  0  0  0
   50.3860  159.6650   30.7630 C   0  0  0  0  0  0  0  0  0  0  0  0
   54.1030  159.3120   29.2560 H   0  0  0  0  0  0  0  0  0  0  0  0
   51.0644  154.8601   30.2110 H   0  0  0  0  0  0  0  0  0  0  0  0
   51.7125  152.8033   28.9790 H   0  0  0  0  0  0  0  0  0  0  0  0
   53.1774  152.8430   25.5320 H   0  0  0  0  0  0  0  0  0  0  0  0
   53.8433  152.1715   27.0854 H   0  0  0  0  0  0  0  0  0  0  0  0
   54.3755  154.5719   25.4634 H   0  0  0  0  0  0  0  0  0  0  0  0
   52.6991  157.2811   27.0329 H   0  0  0  0  0  0  0  0  0  0  0  0
   47.6843  157.5874   30.6473 H   0  0  0  0  0  0  0  0  0  0  0  0
   46.6593  159.5174   31.8574 H   0  0  0  0  0  0  0  0  0  0  0  0
   48.0277  161.5431   32.3646 H   0  0  0  0  0  0  0  0  0  0  0  0
   51.0860  162.2660   31.1230 H   0  0  0  0  0  0  0  0  0  0  0  0
  1  2  2  0
  2  3  1  0
  3  4  1  0
  3  5  2  0
  5  6  1  0
  6  7  2  0
  7  8  1  0
  8  9  2  0
  9 10  1  0
 10 11  1  0
  9 12  1  0
 12 13  1  0
 13 14  1  0
 13 15  1  0
 12 16  2  0
  5 17  1  0
 17 18  1  0
 18 19  2  0
 19 20  1  0
 20 21  2  0
 21 22  1  0
 22 23  1  0
 22 24  2  0
 24  2  1  0
 16  6  1  0
 24 18  1  0
  4 25  1  0
  7 26  1  0
  8 27  1  0
 10 28  1  0
 10 29  1  0
 13 30  1  0
 16 31  1  0
 19 32  1  0
 20 33  1  0
 21 34  1  0
 23 35  1  0
M  END
>  <meeko>  (2) 
{"is_sidechain": [false], "free_energy": -10.488, "intermolecular_energy": -12.819, "internal_energy": -0.282}

$$$$
cand_019_out
     RDKit          3D

 35 37  0  0  0  0  0  0  0  0999 V2000
   52.4830  153.0620   28.8190 O   0  0  0  0  0  0  0  0  0  0  0  0
   52.4420  154.2330   28.4490 C   0  0  0  0  0  0  0  0  0  0  0  0
   51.7700  155.2610   29.2780 C   0  0  0  0  0  0  0  0  0  0  0  0
   51.1900  154.8350   30.4590 O   0  0  0  0  0  0  0  0  0  0  0  0
   51.7480  156.5300   28.8340 C   0  0  0  0  0  0  0  0  0  0  0  0
   51.0960  157.6350   29.5700 C   0  0  0  0  0  0  0  0  0  0  0  0
   49.7850  157.5310   30.0460 C   0  0  0  0  0  0  0  0  0  0  0  0
   49.1980  158.5790   30.7590 C   0  0  0  0  0  0  0  0  0  0  0  0
   49.9080  159.7600   31.0180 C   0  0  0  0  0  0  0  0  0  0  0  0
   49.2470  160.8690   31.7980 C   0  0  0  0  0  0  0  0  0  0  0  0
   48.6930  161.8140   30.9880 F   0  0  0  0  0  0  0  0  0  0  0  0
   51.2420  159.8720   30.5690 C   0  0  0  0  0  0  0  0  0  0  0  0
   52.0610  161.1150   30.8420 C   0  0  0  0  0  0  0  0  0  0  0  0
   52.4530  161.2030   32.1440 F   0  0  0  0  0  0  0  0  0  0  0  0
   53.2160  161.1640   30.1160 F   0  0  0  0  0  0  0  0  0  0  0  0
   51.8150  158.8080   29.8470 C   0  0  0  0  0  0  0  0  0  0  0  0
   52.3110  156.9420   27.6310 O   0  0  0  0  0  0  0  0  0  0  0  0
   52.9460  156.0140   26.8450 C   0  0  0  0  0  0  0  0  0  0  0  0
   53.5050  156.4720   25.6510 C   0  0  0  0  0  0  0  0  0  0  0  0
   54.1650  155.5790   24.8030 C   0  0  0  0  0  0  0  0  0  0  0  0
   54.2650  154.2290   25.1490 C   0  0  0  0  0  0  0  0  0  0  0  0
   53.7050  153.7760   26.3410 C   0  0  0  0  0  0  0  0  0  0  0  0
   53.8390  152.4420   26.6170 O   0  0  0  0  0  0  0  0  0  0  0  0
   53.0450  154.6690   27.1880 C   0  0  0  0  0  0  0  0  0  0  0  0
   50.8260  155.4610   31.0540 H   0  0  0  0  0  0  0  0  0  0  0  0
   49.2093  156.6130   29.8566 H   0  0  0  0  0  0  0  0  0  0  0  0
   48.1648  158.4764   31.1222 H   0  0  0  0  0  0  0  0  0  0  0  0
   48.4560  160.4354   32.4275 H   0  0  0  0  0  0  0  0  0  0  0  0
   50.0215  161.3599   32.4056 H   0  0  0  0  0  0  0  0  0  0  0  0
   51.3851  161.9372   30.5645 H   0  0  0  0  0  0  0  0  0  0  0  0
   52.8519  158.8982   29.4911 H   0  0  0  0  0  0  0  0  0  0  0  0
   53.4261  157.5346   25.3779 H   0  0  0  0  0  0  0  0  0  0  0  0
   54.6063  155.9391   23.8620 H   0  0  0  0  0  0  0  0  0  0  0  0
   54.7847  153.5258   24.4816 H   0  0  0  0  0  0  0  0  0  0  0  0
   54.6710  152.0250   26.5170 H   0  0  0  0  0  0  0  0  0  0  0  0
  1  2  2  0
  2  3  1  0
  3  4  1  0
  3  5  2  0
  5  6  1  0
  6  7  2  0
  7  8  1  0
  8  9  2  0
  9 10  1  0
 10 11  1  0
  9 12  1  0
 12 13  1  0
 13 14  1  0
 13 15  1  0
 12 16  2  0
  5 17  1  0
 17 18  1  0
 18 19  2  0
 19 20  1  0
 20 21  2  0
 21 22  1  0
 22 23  1  0
 22 24  2  0
 24  2  1  0
 16  6  1  0
 24 18  1  0
  4 25  1  0
  7 26  1  0
  8 27  1  0
 10 28  1  0
 10 29  1  0
 13 30  1  0
 16 31  1  0
 19 32  1  0
 20 33  1  0
 21 34  1  0
 23 35  1  0
M  END
>  <meeko>  (3) 
{"is_sidechain": [false], "free_energy": -10.433, "intermolecular_energy": -12.695, "internal_energy": -0.339}

$$$$
cand_019_out
     RDKit          3D

 35 37  0  0  0  0  0  0  0  0999 V2000
   48.0670  158.5150   30.7930 O   0  0  0  0  0  0  0  0  0  0  0  0
   49.2510  158.4500   30.4720 C   0  0  0  0  0  0  0  0  0  0  0  0
   49.7790  157.2500   29.7840 C   0  0  0  0  0  0  0  0  0  0  0  0
   48.8880  156.2200   29.5420 O   0  0  0  0  0  0  0  0  0  0  0  0
   51.0830  157.2200   29.4520 C   0  0  0  0  0  0  0  0  0  0  0  0
   51.7210  156.0700   28.7750 C   0  0  0  0  0  0  0  0  0  0  0  0
   51.6730  154.7800   29.3120 C   0  0  0  0  0  0  0  0  0  0  0  0
   52.2640  153.7050   28.6430 C   0  0  0  0  0  0  0  0  0  0  0  0
   52.9170  153.8920   27.4160 C   0  0  0  0  0  0  0  0  0  0  0  0
   53.5370  152.7080   26.7170 C   0  0  0  0  0  0  0  0  0  0  0  0
   52.6260  151.9950   25.9960 F   0  0  0  0  0  0  0  0  0  0  0  0
   52.9510  155.1820   26.8460 C   0  0  0  0  0  0  0  0  0  0  0  0
   53.6220  155.4350   25.5130 C   0  0  0  0  0  0  0  0  0  0  0  0
   52.8480  155.0480   24.4600 F   0  0  0  0  0  0  0  0  0  0  0  0
   53.8930  156.7550   25.2920 F   0  0  0  0  0  0  0  0  0  0  0  0
   52.3560  156.2550   27.5370 C   0  0  0  0  0  0  0  0  0  0  0  0
   51.9760  158.2490   29.7250 O   0  0  0  0  0  0  0  0  0  0  0  0
   51.5150  159.3770   30.3560 C   0  0  0  0  0  0  0  0  0  0  0  0
   52.4440  160.3900   30.6020 C   0  0  0  0  0  0  0  0  0  0  0  0
   52.0410  161.5640   31.2410 C   0  0  0  0  0  0  0  0  0  0  0  0
   50.7100  161.7260   31.6350 C   0  0  0  0  0  0  0  0  0  0  0  0
   49.7860  160.7130   31.3890 C   0  0  0  0  0  0  0  0  0  0  0  0
   48.5010  160.9370   31.8010 O   0  0  0  0  0  0  0  0  0  0  0  0
   50.1900  159.5390   30.7490 C   0  0  0  0  0  0  0  0  0  0  0  0
   48.0000  156.2910   29.8340 H   0  0  0  0  0  0  0  0  0  0  0  0
   51.1641  154.6094   30.2722 H   0  0  0  0  0  0  0  0  0  0  0  0
   52.2164  152.6987   29.0846 H   0  0  0  0  0  0  0  0  0  0  0  0
   54.3210  153.0706   26.0359 H   0  0  0  0  0  0  0  0  0  0  0  0
   53.9501  152.0415   27.4884 H   0  0  0  0  0  0  0  0  0  0  0  0
   54.5494  154.8467   25.5744 H   0  0  0  0  0  0  0  0  0  0  0  0
   52.3896  157.2622   27.0961 H   0  0  0  0  0  0  0  0  0  0  0  0
   53.4920  160.2632   30.2927 H   0  0  0  0  0  0  0  0  0  0  0  0
   52.7722  162.3627   31.4346 H   0  0  0  0  0  0  0  0  0  0  0  0
   50.3927  162.6513   32.1382 H   0  0  0  0  0  0  0  0  0  0  0  0
   48.3310  161.1960   32.6850 H   0  0  0  0  0  0  0  0  0  0  0  0
  1  2  2  0
  2  3  1  0
  3  4  1  0
  3  5  2  0
  5  6  1  0
  6  7  2  0
  7  8  1  0
  8  9  2  0
  9 10  1  0
 10 11  1  0
  9 12  1  0
 12 13  1  0
 13 14  1  0
 13 15  1  0
 12 16  2  0
  5 17  1  0
 17 18  1  0
 18 19  2  0
 19 20  1  0
 20 21  2  0
 21 22  1  0
 22 23  1  0
 22 24  2  0
 24  2  1  0
 16  6  1  0
 24 18  1  0
  4 25  1  0
  7 26  1  0
  8 27  1  0
 10 28  1  0
 10 29  1  0
 13 30  1  0
 16 31  1  0
 19 32  1  0
 20 33  1  0
 21 34  1  0
 23 35  1  0
M  END
>  <meeko>  (4) 
{"is_sidechain": [false], "free_energy": -9.453, "intermolecular_energy": -11.374, "internal_energy": -0.451}

$$$$
cand_019_out
     RDKit          3D

 35 37  0  0  0  0  0  0  0  0999 V2000
   52.3010  161.2520   31.3620 O   0  0  0  0  0  0  0  0  0  0  0  0
   51.6250  160.3120   30.9490 C   0  0  0  0  0  0  0  0  0  0  0  0
   52.2220  159.2880   30.0610 C   0  0  0  0  0  0  0  0  0  0  0  0
   53.5510  159.4540   29.7160 O   0  0  0  0  0  0  0  0  0  0  0  0
   51.4450  158.2780   29.6320 C   0  0  0  0  0  0  0  0  0  0  0  0
   51.9310  157.2080   28.7330 C   0  0  0  0  0  0  0  0  0  0  0  0
   52.5390  157.4950   27.5070 C   0  0  0  0  0  0  0  0  0  0  0  0
   53.0110  156.4680   26.6850 C   0  0  0  0  0  0  0  0  0  0  0  0
   52.8890  155.1250   27.0690 C   0  0  0  0  0  0  0  0  0  0  0  0
   53.4160  154.0430   26.1610 C   0  0  0  0  0  0  0  0  0  0  0  0
   52.9710  154.1770   24.8800 F   0  0  0  0  0  0  0  0  0  0  0  0
   52.3020  154.8180   28.3150 C   0  0  0  0  0  0  0  0  0  0  0  0
   52.1670  153.3870   28.7890 C   0  0  0  0  0  0  0  0  0  0  0  0
   51.6460  153.3030   30.0450 F   0  0  0  0  0  0  0  0  0  0  0  0
   51.3350  152.6400   28.0050 F   0  0  0  0  0  0  0  0  0  0  0  0
   51.8270  155.8650   29.1280 C   0  0  0  0  0  0  0  0  0  0  0  0
   50.1030  158.1370   29.9630 O   0  0  0  0  0  0  0  0  0  0  0  0
   49.5230  159.0650   30.7890 C   0  0  0  0  0  0  0  0  0  0  0  0
   48.1760  158.8800   31.1030 C   0  0  0  0  0  0  0  0  0  0  0  0
   47.5240  159.7890   31.9390 C   0  0  0  0  0  0  0  0  0  0  0  0
   48.2180  160.8840   32.4590 C   0  0  0  0  0  0  0  0  0  0  0  0
   49.5620  161.0670   32.1430 C   0  0  0  0  0  0  0  0  0  0  0  0
   50.1800  162.1590   32.6860 O   0  0  0  0  0  0  0  0  0  0  0  0
   50.2130  160.1560   31.3070 C   0  0  0  0  0  0  0  0  0  0  0  0
   53.8520  160.2810   29.3940 H   0  0  0  0  0  0  0  0  0  0  0  0
   52.6471  158.5415   27.1857 H   0  0  0  0  0  0  0  0  0  0  0  0
   53.4846  156.7166   25.7238 H   0  0  0  0  0  0  0  0  0  0  0  0
   54.5151  154.0874   26.1596 H   0  0  0  0  0  0  0  0  0  0  0  0
   53.0519  153.0779   26.5431 H   0  0  0  0  0  0  0  0  0  0  0  0
   53.1969  153.0026   28.7495 H   0  0  0  0  0  0  0  0  0  0  0  0
   51.3632  155.6247   30.0961 H   0  0  0  0  0  0  0  0  0  0  0  0
   47.6282  158.0190   30.6924 H   0  0  0  0  0  0  0  0  0  0  0  0
   46.4627  159.6425   32.1883 H   0  0  0  0  0  0  0  0  0  0  0  0
   47.7040  161.6004   33.1168 H   0  0  0  0  0  0  0  0  0  0  0  0
   50.3060  162.2140   33.6130 H   0  0  0  0  0  0  0  0  0  0  0  0
  1  2  2  0
  2  3  1  0
  3  4  1  0
  3  5  2  0
  5  6  1  0
  6  7  2  0
  7  8  1  0
  8  9  2  0
  9 10  1  0
 10 11  1  0
  9 12  1  0
 12 13  1  0
 13 14  1  0
 13 15  1  0
 12 16  2  0
  5 17  1  0
 17 18  1  0
 18 19  2  0
 19 20  1  0
 20 21  2  0
 21 22  1  0
 22 23  1  0
 22 24  2  0
 24  2  1  0
 16  6  1  0
 24 18  1  0
  4 25  1  0
  7 26  1  0
  8 27  1  0
 10 28  1  0
 10 29  1  0
 13 30  1  0
 16 31  1  0
 19 32  1  0
 20 33  1  0
 21 34  1  0
 23 35  1  0
M  END
>  <meeko>  (5) 
{"is_sidechain": [false], "free_energy": -8.853, "intermolecular_energy": -10.775, "internal_energy": -0.309}

$$$$
cand_019_out
     RDKit          3D

 35 37  0  0  0  0  0  0  0  0999 V2000
   48.4950  158.0990   31.1940 O   0  0  0  0  0  0  0  0  0  0  0  0
   49.5930  158.2740   30.6690 C   0  0  0  0  0  0  0  0  0  0  0  0
   50.1330  157.2840   29.7090 C   0  0  0  0  0  0  0  0  0  0  0  0
   49.3580  156.1680   29.4530 O   0  0  0  0  0  0  0  0  0  0  0  0
   51.3400  157.5140   29.1600 C   0  0  0  0  0  0  0  0  0  0  0  0
   51.9830  156.5900   28.2000 C   0  0  0  0  0  0  0  0  0  0  0  0
   52.7710  157.0570   27.1440 C   0  0  0  0  0  0  0  0  0  0  0  0
   53.3890  156.1650   26.2630 C   0  0  0  0  0  0  0  0  0  0  0  0
   53.2340  154.7800   26.4170 C   0  0  0  0  0  0  0  0  0  0  0  0
   53.9200  153.8450   25.4540 C   0  0  0  0  0  0  0  0  0  0  0  0
   53.3930  153.9130   24.1990 F   0  0  0  0  0  0  0  0  0  0  0  0
   52.4640  154.2900   27.4940 C   0  0  0  0  0  0  0  0  0  0  0  0
   52.2850  152.8040   27.7200 C   0  0  0  0  0  0  0  0  0  0  0  0
   51.6110  152.5330   28.8730 F   0  0  0  0  0  0  0  0  0  0  0  0
   51.5650  152.1950   26.7330 F   0  0  0  0  0  0  0  0  0  0  0  0
   51.8460  155.2040   28.3680 C   0  0  0  0  0  0  0  0  0  0  0  0
   52.1220  158.6270   29.4460 O   0  0  0  0  0  0  0  0  0  0  0  0
   51.6460  159.5640   30.3260 C   0  0  0  0  0  0  0  0  0  0  0  0
   52.4600  160.6700   30.5760 C   0  0  0  0  0  0  0  0  0  0  0  0
   52.0340  161.6620   31.4630 C   0  0  0  0  0  0  0  0  0  0  0  0
   50.7960  161.5470   32.1000 C   0  0  0  0  0  0  0  0  0  0  0  0
   49.9860  160.4420   31.8480 C   0  0  0  0  0  0  0  0  0  0  0  0
   48.7880  160.3940   32.5050 O   0  0  0  0  0  0  0  0  0  0  0  0
   50.4130  159.4510   30.9610 C   0  0  0  0  0  0  0  0  0  0  0  0
   49.7650  155.3310   29.3360 H   0  0  0  0  0  0  0  0  0  0  0  0
   52.9064  158.1397   27.0047 H   0  0  0  0  0  0  0  0  0  0  0  0
   54.0045  156.5544   25.4387 H   0  0  0  0  0  0  0  0  0  0  0  0
   54.9865  154.1095   25.4040 H   0  0  0  0  0  0  0  0  0  0  0  0
   53.7760  152.8188   25.8230 H   0  0  0  0  0  0  0  0  0  0  0  0
   53.3154  152.4201   27.7499 H   0  0  0  0  0  0  0  0  0  0  0  0
   51.2407  154.8221   29.2033 H   0  0  0  0  0  0  0  0  0  0  0  0
   53.4353  160.7605   30.0755 H   0  0  0  0  0  0  0  0  0  0  0  0
   52.6742  162.5346   31.6600 H   0  0  0  0  0  0  0  0  0  0  0  0
   50.4614  162.3275   32.7992 H   0  0  0  0  0  0  0  0  0  0  0  0
   48.6330  159.7330   33.1500 H   0  0  0  0  0  0  0  0  0  0  0  0
  1  2  2  0
  2  3  1  0
  3  4  1  0
  3  5  2  0
  5  6  1  0
  6  7  2  0
  7  8  1  0
  8  9  2  0
  9 10  1  0
 10 11  1  0
  9 12  1  0
 12 13  1  0
 13 14  1  0
 13 15  1  0
 12 16  2  0
  5 17  1  0
 17 18  1  0
 18 19  2  0
 19 20  1  0
 20 21  2  0
 21 22  1  0
 22 23  1  0
 22 24  2  0
 24  2  1  0
 16  6  1  0
 24 18  1  0
  4 25  1  0
  7 26  1  0
  8 27  1  0
 10 28  1  0
 10 29  1  0
 13 30  1  0
 16 31  1  0
 19 32  1  0
 20 33  1  0
 21 34  1  0
 23 35  1  0
M  END
>  <meeko>  (6) 
{"is_sidechain": [false], "free_energy": -8.433, "intermolecular_energy": -10.468, "internal_energy": -0.098}

$$$$
cand_019_out
     RDKit          3D

 35 37  0  0  0  0  0  0  0  0999 V2000
   52.8040  159.8580   29.7340 O   0  0  0  0  0  0  0  0  0  0  0  0
   52.0680  158.8780   29.6420 C   0  0  0  0  0  0  0  0  0  0  0  0
   52.4930  157.6880   28.8700 C   0  0  0  0  0  0  0  0  0  0  0  0
   53.7320  157.7460   28.2570 O   0  0  0  0  0  0  0  0  0  0  0  0
   51.6560  156.6380   28.7940 C   0  0  0  0  0  0  0  0  0  0  0  0
   51.9700  155.4040   28.0410 C   0  0  0  0  0  0  0  0  0  0  0  0
   51.6850  154.1350   28.5550 C   0  0  0  0  0  0  0  0  0  0  0  0
   51.9690  152.9830   27.8160 C   0  0  0  0  0  0  0  0  0  0  0  0
   52.5440  153.0710   26.5410 C   0  0  0  0  0  0  0  0  0  0  0  0
   52.8310  151.8090   25.7670 C   0  0  0  0  0  0  0  0  0  0  0  0
   52.5240  150.6850   26.4740 F   0  0  0  0  0  0  0  0  0  0  0  0
   52.8140  154.3450   25.9940 C   0  0  0  0  0  0  0  0  0  0  0  0
   53.4120  154.4970   24.6130 C   0  0  0  0  0  0  0  0  0  0  0  0
   53.2830  155.7640   24.1280 F   0  0  0  0  0  0  0  0  0  0  0  0
   54.7520  154.2350   24.5780 F   0  0  0  0  0  0  0  0  0  0  0  0
   52.5260  155.4930   26.7560 C   0  0  0  0  0  0  0  0  0  0  0  0
   50.4020  156.6010   29.3920 O   0  0  0  0  0  0  0  0  0  0  0  0
   49.9820  157.6860   30.1200 C   0  0  0  0  0  0  0  0  0  0  0  0
   48.7210  157.6030   30.7110 C   0  0  0  0  0  0  0  0  0  0  0  0
   48.2330  158.6730   31.4650 C   0  0  0  0  0  0  0  0  0  0  0  0
   49.0060  159.8250   31.6270 C   0  0  0  0  0  0  0  0  0  0  0  0
   50.2640  159.9050   31.0360 C   0  0  0  0  0  0  0  0  0  0  0  0
   50.9670  161.0610   31.2350 O   0  0  0  0  0  0  0  0  0  0  0  0
   50.7510  158.8340   30.2820 C   0  0  0  0  0  0  0  0  0  0  0  0
   54.1560  156.9570   27.9810 H   0  0  0  0  0  0  0  0  0  0  0  0
   51.2318  154.0423   29.5530 H   0  0  0  0  0  0  0  0  0  0  0  0
   51.7382  151.9948   28.2406 H   0  0  0  0  0  0  0  0  0  0  0  0
   52.2353  151.8185   24.8423 H   0  0  0  0  0  0  0  0  0  0  0  0
   53.9094  151.7856   25.5514 H   0  0  0  0  0  0  0  0  0  0  0  0
   52.8518  153.7699   24.0067 H   0  0  0  0  0  0  0  0  0  0  0  0
   52.7424  156.4852   26.3332 H   0  0  0  0  0  0  0  0  0  0  0  0
   48.1117  156.6961   30.5834 H   0  0  0  0  0  0  0  0  0  0  0  0
   47.2390  158.6082   31.9316 H   0  0  0  0  0  0  0  0  0  0  0  0
   48.6215  160.6676   32.2205 H   0  0  0  0  0  0  0  0  0  0  0  0
   50.5870  161.8860   31.0050 H   0  0  0  0  0  0  0  0  0  0  0  0
  1  2  2  0
  2  3  1  0
  3  4  1  0
  3  5  2  0
  5  6  1  0
  6  7  2  0
  7  8  1  0
  8  9  2  0
  9 10  1  0
 10 11  1  0
  9 12  1  0
 12 13  1  0
 13 14  1  0
 13 15  1  0
 12 16  2  0
  5 17  1  0
 17 18  1  0
 18 19  2  0
 19 20  1  0
 20 21  2  0
 21 22  1  0
 22 23  1  0
 22 24  2  0
 24  2  1  0
 16  6  1  0
 24 18  1  0
  4 25  1  0
  7 26  1  0
  8 27  1  0
 10 28  1  0
 10 29  1  0
 13 30  1  0
 16 31  1  0
 19 32  1  0
 20 33  1  0
 21 34  1  0
 23 35  1  0
M  END
>  <meeko>  (7) 
{"is_sidechain": [false], "free_energy": -8.407, "intermolecular_energy": -10.34, "internal_energy": -0.195}

$$$$
cand_019_out
     RDKit          3D

 35 37  0  0  0  0  0  0  0  0999 V2000
   54.6930  155.1990   24.8100 O   0  0  0  0  0  0  0  0  0  0  0  0
   53.8580  154.7540   25.5940 C   0  0  0  0  0  0  0  0  0  0  0  0
   53.1190  155.6620   26.5010 C   0  0  0  0  0  0  0  0  0  0  0  0
   53.4260  157.0090   26.4300 O   0  0  0  0  0  0  0  0  0  0  0  0
   52.2150  155.1330   27.3450 C   0  0  0  0  0  0  0  0  0  0  0  0
   51.4290  155.9410   28.3030 C   0  0  0  0  0  0  0  0  0  0  0  0
   50.2770  155.4400   28.9170 C   0  0  0  0  0  0  0  0  0  0  0  0
   49.5630  156.2130   29.8370 C   0  0  0  0  0  0  0  0  0  0  0  0
   49.9840  157.5090   30.1670 C   0  0  0  0  0  0  0  0  0  0  0  0
   49.1950  158.3140   31.1690 C   0  0  0  0  0  0  0  0  0  0  0  0
   48.0320  158.7960   30.6480 F   0  0  0  0  0  0  0  0  0  0  0  0
   51.1600  158.0210   29.5770 C   0  0  0  0  0  0  0  0  0  0  0  0
   51.6720  159.4040   29.9160 C   0  0  0  0  0  0  0  0  0  0  0  0
   50.8250  160.3870   29.5020 F   0  0  0  0  0  0  0  0  0  0  0  0
   51.8260  159.6040   31.2580 F   0  0  0  0  0  0  0  0  0  0  0  0
   51.8630  157.2300   28.6490 C   0  0  0  0  0  0  0  0  0  0  0  0
   51.9340  153.7740   27.4270 O   0  0  0  0  0  0  0  0  0  0  0  0
   52.5970  152.9080   26.5950 C   0  0  0  0  0  0  0  0  0  0  0  0
   52.2770  151.5540   26.7050 C   0  0  0  0  0  0  0  0  0  0  0  0
   52.9160  150.6190   25.8870 C   0  0  0  0  0  0  0  0  0  0  0  0
   53.8750  151.0380   24.9620 C   0  0  0  0  0  0  0  0  0  0  0  0
   54.1930  152.3900   24.8560 C   0  0  0  0  0  0  0  0  0  0  0  0
   55.1400  152.7300   23.9300 O   0  0  0  0  0  0  0  0  0  0  0  0
   53.5530  153.3240   25.6730 C   0  0  0  0  0  0  0  0  0  0  0  0
   53.0520  157.5400   25.7540 H   0  0  0  0  0  0  0  0  0  0  0  0
   49.9285  154.4256   28.6731 H   0  0  0  0  0  0  0  0  0  0  0  0
   48.6592  155.7992   30.3081 H   0  0  0  0  0  0  0  0  0  0  0  0
   48.9570  157.6714   32.0295 H   0  0  0  0  0  0  0  0  0  0  0  0
   49.8112  159.1751   31.4671 H   0  0  0  0  0  0  0  0  0  0  0  0
   52.6402  159.4563   29.3965 H   0  0  0  0  0  0  0  0  0  0  0  0
   52.7750  157.6320   28.1835 H   0  0  0  0  0  0  0  0  0  0  0  0
   51.5229  151.2236   27.4345 H   0  0  0  0  0  0  0  0  0  0  0  0
   52.6636  149.5517   25.9715 H   0  0  0  0  0  0  0  0  0  0  0  0
   54.3783  150.3015   24.3183 H   0  0  0  0  0  0  0  0  0  0  0  0
   55.9850  153.0240   24.2090 H   0  0  0  0  0  0  0  0  0  0  0  0
  1  2  2  0
  2  3  1  0
  3  4  1  0
  3  5  2  0
  5  6  1  0
  6  7  2  0
  7  8  1  0
  8  9  2  0
  9 10  1  0
 10 11  1  0
  9 12  1  0
 12 13  1  0
 13 14  1  0
 13 15  1  0
 12 16  2  0
  5 17  1  0
 17 18  1  0
 18 19  2  0
 19 20  1  0
 20 21  2  0
 21 22  1  0
 22 23  1  0
 22 24  2  0
 24  2  1  0
 16  6  1  0
 24 18  1  0
  4 25  1  0
  7 26  1  0
  8 27  1  0
 10 28  1  0
 10 29  1  0
 13 30  1  0
 16 31  1  0
 19 32  1  0
 20 33  1  0
 21 34  1  0
 23 35  1  0
M  END
>  <meeko>  (8) 
{"is_sidechain": [false], "free_energy": -8.184, "intermolecular_energy": -10.524, "internal_energy": 0.265}

$$$$
cand_019_out
     RDKit          3D

 35 37  0  0  0  0  0  0  0  0999 V2000
   54.6890  154.7300   24.2160 O   0  0  0  0  0  0  0  0  0  0  0  0
   53.9740  154.5210   25.1940 C   0  0  0  0  0  0  0  0  0  0  0  0
   53.5600  155.6380   26.0750 C   0  0  0  0  0  0  0  0  0  0  0  0
   54.0270  156.8990   25.7530 O   0  0  0  0  0  0  0  0  0  0  0  0
   52.7790  155.3640   27.1350 C   0  0  0  0  0  0  0  0  0  0  0  0
   52.3160  156.3960   28.0890 C   0  0  0  0  0  0  0  0  0  0  0  0
   53.1050  157.5030   28.4160 C   0  0  0  0  0  0  0  0  0  0  0  0
   52.6380  158.4780   29.3020 C   0  0  0  0  0  0  0  0  0  0  0  0
   51.3660  158.3710   29.8840 C   0  0  0  0  0  0  0  0  0  0  0  0
   50.8900  159.4440   30.8300 C   0  0  0  0  0  0  0  0  0  0  0  0
   50.4340  160.5490   30.1750 F   0  0  0  0  0  0  0  0  0  0  0  0
   50.5450  157.2740   29.5440 C   0  0  0  0  0  0  0  0  0  0  0  0
   49.1560  157.1230   30.1240 C   0  0  0  0  0  0  0  0  0  0  0  0
   48.3740  158.2130   29.8900 F   0  0  0  0  0  0  0  0  0  0  0  0
   48.4670  156.0680   29.5970 F   0  0  0  0  0  0  0  0  0  0  0  0
   51.0350  156.2990   28.6540 C   0  0  0  0  0  0  0  0  0  0  0  0
   52.3390  154.0880   27.4660 O   0  0  0  0  0  0  0  0  0  0  0  0
   52.6990  153.0340   26.6650 C   0  0  0  0  0  0  0  0  0  0  0  0
   52.2270  151.7720   27.0270 C   0  0  0  0  0  0  0  0  0  0  0  0
   52.5580  150.6560   26.2550 C   0  0  0  0  0  0  0  0  0  0  0  0
   53.3610  150.8020   25.1220 C   0  0  0  0  0  0  0  0  0  0  0  0
   53.8310  152.0630   24.7630 C   0  0  0  0  0  0  0  0  0  0  0  0
   54.6130  152.1340   23.6430 O   0  0  0  0  0  0  0  0  0  0  0  0
   53.5000  153.1790   25.5360 C   0  0  0  0  0  0  0  0  0  0  0  0
   54.9460  157.0820   25.7870 H   0  0  0  0  0  0  0  0  0  0  0  0
   54.1053  157.6079   27.9706 H   0  0  0  0  0  0  0  0  0  0  0  0
   53.2760  159.3402   29.5460 H   0  0  0  0  0  0  0  0  0  0  0  0
   50.0743  159.0362   31.4451 H   0  0  0  0  0  0  0  0  0  0  0  0
   51.7467  159.7502   31.4484 H   0  0  0  0  0  0  0  0  0  0  0  0
   49.3393  156.9770   31.1987 H   0  0  0  0  0  0  0  0  0  0  0  0
   50.3981  155.4403   28.3953 H   0  0  0  0  0  0  0  0  0  0  0  0
   51.5947  151.6560   27.9196 H   0  0  0  0  0  0  0  0  0  0  0  0
   52.1856  149.6609   26.5399 H   0  0  0  0  0  0  0  0  0  0  0  0
   53.6218  149.9230   24.5143 H   0  0  0  0  0  0  0  0  0  0  0  0
   55.5290  152.3120   23.7210 H   0  0  0  0  0  0  0  0  0  0  0  0
  1  2  2  0
  2  3  1  0
  3  4  1  0
  3  5  2  0
  5  6  1  0
  6  7  2  0
  7  8  1  0
  8  9  2  0
  9 10  1  0
 10 11  1  0
  9 12  1  0
 12 13  1  0
 13 14  1  0
 13 15  1  0
 12 16  2  0
  5 17  1  0
 17 18  1  0
 18 19  2  0
 19 20  1  0
 20 21  2  0
 21 22  1  0
 22 23  1  0
 22 24  2  0
 24  2  1  0
 16  6  1  0
 24 18  1  0
  4 25  1  0
  7 26  1  0
  8 27  1  0
 10 28  1  0
 10 29  1  0
 13 30  1  0
 16 31  1  0
 19 32  1  0
 20 33  1  0
 21 34  1  0
 23 35  1  0
M  END
>  <meeko>  (9) 
{"is_sidechain": [false], "free_energy": -7.909, "intermolecular_energy": -9.894, "internal_energy": -0.025}

$$$$
