cand_011_out
     RDKit          3D

 35 37  0  0  0  0  0  0  0  0999 V2000
   53.0080  152.6450   26.6740 C   0  0  0  0  0  0  0  0  0  0  0  0
   52.6030  153.9270   27.3500 C   0  0  0  0  0  0  0  0  0  0  0  0
   52.0120  153.8720   28.6210 C   0  0  0  0  0  0  0  0  0  0  0  0
   51.6270  155.0410   29.2810 C   0  0  0  0  0  0  0  0  0  0  0  0
   51.8180  156.2950   28.6920 C   0  0  0  0  0  0  0  0  0  0  0  0
   51.4200  157.5190   29.4180 C   0  0  0  0  0  0  0  0  0  0  0  0
   50.0820  157.5140   29.7930 O   0  0  0  0  0  0  0  0  0  0  0  0
   49.5810  158.5950   30.4750 C   0  0  0  0  0  0  0  0  0  0  0  0
   48.2370  158.5420   30.8450 C   0  0  0  0  0  0  0  0  0  0  0  0
   47.6640  159.6100   31.5410 C   0  0  0  0  0  0  0  0  0  0  0  0
   48.4350  160.7290   31.8650 C   0  0  0  0  0  0  0  0  0  0  0  0
   49.7760  160.7780   31.4940 C   0  0  0  0  0  0  0  0  0  0  0  0
   50.4720  161.9030   31.8420 O   0  0  0  0  0  0  0  0  0  0  0  0
   50.3490  159.7090   30.7990 C   0  0  0  0  0  0  0  0  0  0  0  0
   51.7540  159.7220   30.3900 C   0  0  0  0  0  0  0  0  0  0  0  0
   52.4960  160.6730   30.6310 O   0  0  0  0  0  0  0  0  0  0  0  0
   52.2670  158.5360   29.6650 C   0  0  0  0  0  0  0  0  0  0  0  0
   53.5910  158.5600   29.2710 O   0  0  0  0  0  0  0  0  0  0  0  0
   52.4250  156.3510   27.4280 C   0  0  0  0  0  0  0  0  0  0  0  0
   52.8220  155.1830   26.7450 C   0  0  0  0  0  0  0  0  0  0  0  0
   53.4640  155.3060   25.3800 C   0  0  0  0  0  0  0  0  0  0  0  0
   53.6100  156.6020   24.9850 F   0  0  0  0  0  0  0  0  0  0  0  0
   54.7110  154.7580   25.3080 F   0  0  0  0  0  0  0  0  0  0  0  0
   52.7420  154.6940   24.3990 F   0  0  0  0  0  0  0  0  0  0  0  0
   53.2470  151.8884   27.4358 H   0  0  0  0  0  0  0  0  0  0  0  0
   52.1801  152.2842   26.0460 H   0  0  0  0  0  0  0  0  0  0  0  0
   53.8929  152.8253   26.0460 H   0  0  0  0  0  0  0  0  0  0  0  0
   51.8499  152.8968   29.1034 H   0  0  0  0  0  0  0  0  0  0  0  0
   51.1671  154.9745   30.2780 H   0  0  0  0  0  0  0  0  0  0  0  0
   47.6294  157.6614   30.5895 H   0  0  0  0  0  0  0  0  0  0  0  0
   46.6045  159.5694   31.8341 H   0  0  0  0  0  0  0  0  0  0  0  0
   47.9835  161.5697   32.4121 H   0  0  0  0  0  0  0  0  0  0  0  0
   50.6590  162.5560   31.1960 H   0  0  0  0  0  0  0  0  0  0  0  0
   54.2420  158.1320   29.7910 H   0  0  0  0  0  0  0  0  0  0  0  0
   52.5954  157.3309   26.9581 H   0  0  0  0  0  0  0  0  0  0  0  0
  1  2  1  0
  2  3  2  0
  3  4  1  0
  4  5  2  0
  5  6  1  0
  6  7  1  0
  7  8  1  0
  8  9  2  0
  9 10  1  0
 10 11  2  0
 11 12  1  0
 12 13  1  0
 12 14  2  0
 14 15  1  0
 15 16  2  0
 15 17  1  0
 17 18  1  0
  5 19  1  0
 19 20  2  0
 20 21  1  0
 21 22  1  0
 21 23  1  0
 21 24  1  0
 20  2  1  0
 17  6  2  0
 14  8  1  0
  1 25  1  0
  1 26  1  0
  1 27  1  0
  3 28  1  0
  4 29  1  0
  9 30  1  0
 10 31  1  0
 11 32  1  0
 13 33  1  0
 18 34  1  0
 19 35  1  0
M  END
>  <meeko>  (1) 
{"is_sidechain": [false], "free_energy": -10.775, "intermolecular_energy": -12.665, "internal_energy": -0.229}

$$$$
cand_011_out
     RDKit          3D

 35 37  0  0  0  0  0  0  0  0999 V2000
   50.2940  161.3520   31.6080 C   0  0  0  0  0  0  0  0  0  0  0  0
   50.6880  160.1060   30.8590 C   0  0  0  0  0  0  0  0  0  0  0  0
   52.0190  159.9480   30.4480 C   0  0  0  0  0  0  0  0  0  0  0  0
   52.4220  158.8040   29.7560 C   0  0  0  0  0  0  0  0  0  0  0  0
   51.5080  157.7900   29.4520 C   0  0  0  0  0  0  0  0  0  0  0  0
   51.9610  156.5790   28.7340 C   0  0  0  0  0  0  0  0  0  0  0  0
   52.5190  156.8640   27.4930 O   0  0  0  0  0  0  0  0  0  0  0  0
   52.9810  155.8270   26.7220 C   0  0  0  0  0  0  0  0  0  0  0  0
   53.5460  156.1580   25.4890 C   0  0  0  0  0  0  0  0  0  0  0  0
   54.0350  155.1510   24.6540 C   0  0  0  0  0  0  0  0  0  0  0  0
   53.9570  153.8130   25.0510 C   0  0  0  0  0  0  0  0  0  0  0  0
   53.3920  153.4860   26.2810 C   0  0  0  0  0  0  0  0  0  0  0  0
   53.3460  152.1580   26.6060 O   0  0  0  0  0  0  0  0  0  0  0  0
   52.9040  154.4950   27.1170 C   0  0  0  0  0  0  0  0  0  0  0  0
   52.3030  154.1940   28.4160 C   0  0  0  0  0  0  0  0  0  0  0  0
   52.1910  153.0430   28.8330 O   0  0  0  0  0  0  0  0  0  0  0  0
   51.8240  155.3350   29.2300 C   0  0  0  0  0  0  0  0  0  0  0  0
   51.2460  155.0430   30.4500 O   0  0  0  0  0  0  0  0  0  0  0  0
   50.1800  157.9410   29.8780 C   0  0  0  0  0  0  0  0  0  0  0  0
   49.7530  159.0870   30.5790 C   0  0  0  0  0  0  0  0  0  0  0  0
   48.3050  159.1970   31.0050 C   0  0  0  0  0  0  0  0  0  0  0  0
   48.1060  158.7990   32.2930 F   0  0  0  0  0  0  0  0  0  0  0  0
   47.8050  160.4640   30.9310 F   0  0  0  0  0  0  0  0  0  0  0  0
   47.4710  158.4330   30.2440 F   0  0  0  0  0  0  0  0  0  0  0  0
   50.3536  161.1636   32.6901 H   0  0  0  0  0  0  0  0  0  0  0  0
   50.9767  162.1720   31.3404 H   0  0  0  0  0  0  0  0  0  0  0  0
   49.2640  161.6304   31.3404 H   0  0  0  0  0  0  0  0  0  0  0  0
   52.7545  160.7344   30.6733 H   0  0  0  0  0  0  0  0  0  0  0  0
   53.4722  158.6990   29.4459 H   0  0  0  0  0  0  0  0  0  0  0  0
   53.6059  157.2107   25.1756 H   0  0  0  0  0  0  0  0  0  0  0  0
   54.4819  155.4110   23.6831 H   0  0  0  0  0  0  0  0  0  0  0  0
   54.3413  153.0198   24.3929 H   0  0  0  0  0  0  0  0  0  0  0  0
   54.0920  151.6120   26.4500 H   0  0  0  0  0  0  0  0  0  0  0  0
   51.1580  155.7120   31.1000 H   0  0  0  0  0  0  0  0  0  0  0  0
   49.4532  157.1447   29.6594 H   0  0  0  0  0  0  0  0  0  0  0  0
  1  2  1  0
  2  3  2  0
  3  4  1  0
  4  5  2  0
  5  6  1  0
  6  7  1  0
  7  8  1  0
  8  9  2  0
  9 10  1  0
 10 11  2  0
 11 12  1  0
 12 13  1  0
 12 14  2  0
 14 15  1  0
 15 16  2  0
 15 17  1  0
 17 18  1  0
  5 19  1  0
 19 20  2  0
 20 21  1  0
 21 22  1  0
 21 23  1  0
 21 24  1  0
 20  2  1  0
 17  6  2  0
 14  8  1  0
  1 25  1  0
  1 26  1  0
  1 27  1  0
  3 28  1  0
  4 29  1  0
  9 30  1  0
 10 31  1  0
 11 32  1  0
 13 33  1  0
 18 34  1  0
 19 35  1  0
M  END
>  <meeko>  (2) 
{"is_sidechain": [false], "free_energy": -10.656, "intermolecular_energy": -12.677, "internal_energy": -0.077}

$$$$
cand_011_out
     RDKit          3D

 35 37  0  0  0  0  0  0  0  0999 V2000
   53.4150  152.4760   26.2660 C   0  0  0  0  0  0  0  0  0  0  0  0
   52.9810  153.7340   26.9690 C   0  0  0  0  0  0  0  0  0  0  0  0
   52.3450  153.6370   28.2150 C   0  0  0  0  0  0  0  0  0  0  0  0
   51.9330  154.7820   28.8990 C   0  0  0  0  0  0  0  0  0  0  0  0
   52.1410  156.0550   28.3580 C   0  0  0  0  0  0  0  0  0  0  0  0
   51.7140  157.2540   29.1090 C   0  0  0  0  0  0  0  0  0  0  0  0
   50.3770  157.2080   29.4870 O   0  0  0  0  0  0  0  0  0  0  0  0
   49.8500  158.2610   30.1910 C   0  0  0  0  0  0  0  0  0  0  0  0
   48.5080  158.1680   30.5620 C   0  0  0  0  0  0  0  0  0  0  0  0
   47.9100  159.2060   31.2800 C   0  0  0  0  0  0  0  0  0  0  0  0
   48.6530  160.3370   31.6250 C   0  0  0  0  0  0  0  0  0  0  0  0
   49.9920  160.4280   31.2530 C   0  0  0  0  0  0  0  0  0  0  0  0
   50.6590  161.5630   31.6220 O   0  0  0  0  0  0  0  0  0  0  0  0
   50.5900  159.3880   30.5360 C   0  0  0  0  0  0  0  0  0  0  0  0
   51.9940  159.4450   30.1250 C   0  0  0  0  0  0  0  0  0  0  0  0
   52.7110  160.4090   30.3840 O   0  0  0  0  0  0  0  0  0  0  0  0
   52.5350  158.2870   29.3760 C   0  0  0  0  0  0  0  0  0  0  0  0
   53.8580  158.3530   28.9810 O   0  0  0  0  0  0  0  0  0  0  0  0
   52.7930  156.1540   27.1200 C   0  0  0  0  0  0  0  0  0  0  0  0
   53.2170  155.0100   26.4130 C   0  0  0  0  0  0  0  0  0  0  0  0
   53.9070  155.1790   25.0770 C   0  0  0  0  0  0  0  0  0  0  0  0
   53.1940  154.6420   24.0470 F   0  0  0  0  0  0  0  0  0  0  0  0
   54.1260  156.4800   24.7320 F   0  0  0  0  0  0  0  0  0  0  0  0
   55.1310  154.5810   25.0350 F   0  0  0  0  0  0  0  0  0  0  0  0
   53.6787  151.7116   27.0117 H   0  0  0  0  0  0  0  0  0  0  0  0
   52.5927  152.1056   25.6362 H   0  0  0  0  0  0  0  0  0  0  0  0
   54.2908  152.6914   25.6362 H   0  0  0  0  0  0  0  0  0  0  0  0
   52.1685  152.6462   28.6590 H   0  0  0  0  0  0  0  0  0  0  0  0
   51.4382  154.6818   29.8763 H   0  0  0  0  0  0  0  0  0  0  0  0
   47.9217  157.2781   30.2892 H   0  0  0  0  0  0  0  0  0  0  0  0
   46.8526  159.1326   31.5741 H   0  0  0  0  0  0  0  0  0  0  0  0
   48.1814  161.1547   32.1897 H   0  0  0  0  0  0  0  0  0  0  0  0
   51.5370  161.5060   31.9450 H   0  0  0  0  0  0  0  0  0  0  0  0
   54.3980  157.5890   29.0250 H   0  0  0  0  0  0  0  0  0  0  0  0
   52.9782  157.1493   26.6898 H   0  0  0  0  0  0  0  0  0  0  0  0
  1  2  1  0
  2  3  2  0
  3  4  1  0
  4  5  2  0
  5  6  1  0
  6  7  1  0
  7  8  1  0
  8  9  2  0
  9 10  1  0
 10 11  2  0
 11 12  1  0
 12 13  1  0
 12 14  2  0
 14 15  1  0
 15 16  2  0
 15 17  1  0
 17 18  1  0
  5 19  1  0
 19 20  2  0
 20 21  1  0
 21 22  1  0
 21 23  1  0
 21 24  1  0
 20  2  1  0
 17  6  2  0
 14  8  1  0
  1 25  1  0
  1 26  1  0
  1 27  1  0
  3 28  1  0
  4 29  1  0
  9 30  1  0
 10 31  1  0
 11 32  1  0
 13 33  1  0
 18 34  1  0
 19 35  1  0
M  END
>  <meeko>  (3) 
{"is_sidechain": [false], "free_energy": -10.579, "intermolecular_energy": -12.487, "internal_energy": -0.177}

$$$$
cand_011_out
     RDKit          3D

 35 37  0  0  0  0  0  0  0  0999 V2000
   49.0910  160.3710   31.6510 C   0  0  0  0  0  0  0  0  0  0  0  0
   49.8430  159.3180   30.8800 C   0  0  0  0  0  0  0  0  0  0  0  0
   49.1970  158.1160   30.5570 C   0  0  0  0  0  0  0  0  0  0  0  0
   49.8610  157.1190   29.8400 C   0  0  0  0  0  0  0  0  0  0  0  0
   51.1860  157.2920   29.4270 C   0  0  0  0  0  0  0  0  0  0  0  0
   51.8620  156.2300   28.6520 C   0  0  0  0  0  0  0  0  0  0  0  0
   52.3650  156.6830   27.4390 O   0  0  0  0  0  0  0  0  0  0  0  0
   53.0170  155.7960   26.6190 C   0  0  0  0  0  0  0  0  0  0  0  0
   53.5190  156.2950   25.4170 C   0  0  0  0  0  0  0  0  0  0  0  0
   54.1930  155.4460   24.5370 C   0  0  0  0  0  0  0  0  0  0  0  0
   54.3630  154.0970   24.8580 C   0  0  0  0  0  0  0  0  0  0  0  0
   53.8600  153.6010   26.0580 C   0  0  0  0  0  0  0  0  0  0  0  0
   54.0610  152.2710   26.3090 O   0  0  0  0  0  0  0  0  0  0  0  0
   53.1870  154.4520   26.9400 C   0  0  0  0  0  0  0  0  0  0  0  0
   52.6440  153.9710   28.2100 C   0  0  0  0  0  0  0  0  0  0  0  0
   52.7460  152.7970   28.5610 O   0  0  0  0  0  0  0  0  0  0  0  0
   51.9560  154.9560   29.0770 C   0  0  0  0  0  0  0  0  0  0  0  0
   51.4340  154.4920   30.2690 O   0  0  0  0  0  0  0  0  0  0  0  0
   51.8260  158.5010   29.7350 C   0  0  0  0  0  0  0  0  0  0  0  0
   51.1740  159.5220   30.4580 C   0  0  0  0  0  0  0  0  0  0  0  0
   51.9190  160.8020   30.7680 C   0  0  0  0  0  0  0  0  0  0  0  0
   51.3840  161.8850   30.1390 F   0  0  0  0  0  0  0  0  0  0  0  0
   51.9380  161.1190   32.0940 F   0  0  0  0  0  0  0  0  0  0  0  0
   53.2270  160.7560   30.3880 F   0  0  0  0  0  0  0  0  0  0  0  0
   49.2165  160.1953   32.7296 H   0  0  0  0  0  0  0  0  0  0  0  0
   49.4846  161.3653   31.3932 H   0  0  0  0  0  0  0  0  0  0  0  0
   48.0228  160.3214   31.3932 H   0  0  0  0  0  0  0  0  0  0  0  0
   48.1552  157.9569   30.8722 H   0  0  0  0  0  0  0  0  0  0  0  0
   49.3347  156.1843   29.5965 H   0  0  0  0  0  0  0  0  0  0  0  0
   53.3840  157.3566   25.1626 H   0  0  0  0  0  0  0  0  0  0  0  0
   54.5906  155.8397   23.5899 H   0  0  0  0  0  0  0  0  0  0  0  0
   54.8931  153.4280   24.1642 H   0  0  0  0  0  0  0  0  0  0  0  0
   53.4690  151.8060   26.8670 H   0  0  0  0  0  0  0  0  0  0  0  0
   51.7880  153.7200   30.6670 H   0  0  0  0  0  0  0  0  0  0  0  0
   52.8634  158.6574   29.4043 H   0  0  0  0  0  0  0  0  0  0  0  0
  1  2  1  0
  2  3  2  0
  3  4  1  0
  4  5  2  0
  5  6  1  0
  6  7  1  0
  7  8  1  0
  8  9  2  0
  9 10  1  0
 10 11  2  0
 11 12  1  0
 12 13  1  0
 12 14  2  0
 14 15  1  0
 15 16  2  0
 15 17  1  0
 17 18  1  0
  5 19  1  0
 19 20  2  0
 20 21  1  0
 21 22  1  0
 21 23  1  0
 21 24  1  0
 20  2  1  0
 17  6  2  0
 14  8  1  0
  1 25  1  0
  1 26  1  0
  1 27  1  0
  3 28  1  0
  4 29  1  0
  9 30  1  0
 10 31  1  0
 11 32  1  0
 13 33  1  0
 18 34  1  0
 19 35  1  0
M  END
>  <meeko>  (4) 
{"is_sidechain": [false], "free_energy": -10.524, "intermolecular_energy": -12.388, "internal_energy": -0.211}

$$$$
cand_011_out
     RDKit          3D

 35 37  0  0  0  0  0  0  0  0999 V2000
   53.5870  152.7320   26.5620 C   0  0  0  0  0  0  0  0  0  0  0  0
   52.9520  153.9100   27.2530 C   0  0  0  0  0  0  0  0  0  0  0  0
   52.3990  153.7370   28.5300 C   0  0  0  0  0  0  0  0  0  0  0  0
   51.8060  154.8070   29.2020 C   0  0  0  0  0  0  0  0  0  0  0  0
   51.7460  156.0770   28.6200 C   0  0  0  0  0  0  0  0  0  0  0  0
   51.1290  157.1990   29.3590 C   0  0  0  0  0  0  0  0  0  0  0  0
   52.0240  158.2300   29.6220 O   0  0  0  0  0  0  0  0  0  0  0  0
   51.5800  159.3340   30.3050 C   0  0  0  0  0  0  0  0  0  0  0  0
   52.5070  160.3510   30.5360 C   0  0  0  0  0  0  0  0  0  0  0  0
   52.1200  161.5030   31.2250 C   0  0  0  0  0  0  0  0  0  0  0  0
   50.8080  161.6360   31.6850 C   0  0  0  0  0  0  0  0  0  0  0  0
   49.8850  160.6200   31.4530 C   0  0  0  0  0  0  0  0  0  0  0  0
   48.6180  160.8150   31.9310 O   0  0  0  0  0  0  0  0  0  0  0  0
   50.2720  159.4680   30.7620 C   0  0  0  0  0  0  0  0  0  0  0  0
   49.3340  158.3760   30.4980 C   0  0  0  0  0  0  0  0  0  0  0  0
   48.1640  158.4150   30.8760 O   0  0  0  0  0  0  0  0  0  0  0  0
   49.8410  157.2030   29.7500 C   0  0  0  0  0  0  0  0  0  0  0  0
   48.9530  156.1710   29.5160 O   0  0  0  0  0  0  0  0  0  0  0  0
   52.3140  156.2540   27.3500 C   0  0  0  0  0  0  0  0  0  0  0  0
   52.9190  155.1870   26.6530 C   0  0  0  0  0  0  0  0  0  0  0  0
   53.5080  155.4370   25.2820 C   0  0  0  0  0  0  0  0  0  0  0  0
   53.3580  156.7290   24.8760 F   0  0  0  0  0  0  0  0  0  0  0  0
   54.8450  155.1800   25.2030 F   0  0  0  0  0  0  0  0  0  0  0  0
   52.9330  154.6710   24.3130 F   0  0  0  0  0  0  0  0  0  0  0  0
   53.9674  152.0264   27.3153 H   0  0  0  0  0  0  0  0  0  0  0  0
   52.8381  152.2285   25.9330 H   0  0  0  0  0  0  0  0  0  0  0  0
   54.4193  153.0808   25.9330 H   0  0  0  0  0  0  0  0  0  0  0  0
   52.4329  152.7467   29.0076 H   0  0  0  0  0  0  0  0  0  0  0  0
   51.3798  154.6490   30.2037 H   0  0  0  0  0  0  0  0  0  0  0  0
   53.5411  160.2458   30.1761 H   0  0  0  0  0  0  0  0  0  0  0  0
   52.8495  162.3063   31.4054 H   0  0  0  0  0  0  0  0  0  0  0  0
   50.5045  162.5421   32.2298 H   0  0  0  0  0  0  0  0  0  0  0  0
   48.3240  161.6800   32.1370 H   0  0  0  0  0  0  0  0  0  0  0  0
   49.0660  155.3480   29.9500 H   0  0  0  0  0  0  0  0  0  0  0  0
   52.2871  157.2506   26.8853 H   0  0  0  0  0  0  0  0  0  0  0  0
  1  2  1  0
  2  3  2  0
  3  4  1  0
  4  5  2  0
  5  6  1  0
  6  7  1  0
  7  8  1  0
  8  9  2  0
  9 10  1  0
 10 11  2  0
 11 12  1  0
 12 13  1  0
 12 14  2  0
 14 15  1  0
 15 16  2  0
 15 17  1  0
 17 18  1  0
  5 19  1  0
 19 20  2  0
 20 21  1  0
 21 22  1  0
 21 23  1  0
 21 24  1  0
 20  2  1  0
 17  6  2  0
 14  8  1  0
  1 25  1  0
  1 26  1  0
  1 27  1  0
  3 28  1  0
  4 29  1  0
  9 30  1  0
 10 31  1  0
 11 32  1  0
 13 33  1  0
 18 34  1  0
 19 35  1  0
M  END
>  <meeko>  (5) 
{"is_sidechain": [false], "free_energy": -9.666, "intermolecular_energy": -11.302, "internal_energy": -0.288}

$$$$
cand_011_out
     RDKit          3D

 35 37  0  0  0  0  0  0  0  0999 V2000
   53.4200  154.2650   26.0370 C   0  0  0  0  0  0  0  0  0  0  0  0
   52.9120  155.2940   27.0120 C   0  0  0  0  0  0  0  0  0  0  0  0
   52.9780  156.6520   26.6690 C   0  0  0  0  0  0  0  0  0  0  0  0
   52.5130  157.6340   27.5460 C   0  0  0  0  0  0  0  0  0  0  0  0
   51.9710  157.2890   28.7880 C   0  0  0  0  0  0  0  0  0  0  0  0
   51.4680  158.3450   29.6920 C   0  0  0  0  0  0  0  0  0  0  0  0
   50.1270  158.1820   30.0190 O   0  0  0  0  0  0  0  0  0  0  0  0
   49.5330  159.0970   30.8520 C   0  0  0  0  0  0  0  0  0  0  0  0
   48.1890  158.8880   31.1660 C   0  0  0  0  0  0  0  0  0  0  0  0
   47.5240  159.7820   32.0090 C   0  0  0  0  0  0  0  0  0  0  0  0
   48.2020  160.8840   32.5360 C   0  0  0  0  0  0  0  0  0  0  0  0
   49.5430  161.0890   32.2200 C   0  0  0  0  0  0  0  0  0  0  0  0
   50.1450  162.1880   32.7690 O   0  0  0  0  0  0  0  0  0  0  0  0
   50.2080  160.1940   31.3780 C   0  0  0  0  0  0  0  0  0  0  0  0
   51.6160  160.3740   31.0220 C   0  0  0  0  0  0  0  0  0  0  0  0
   52.2790  161.3220   31.4380 O   0  0  0  0  0  0  0  0  0  0  0  0
   52.2300  159.3640   30.1290 C   0  0  0  0  0  0  0  0  0  0  0  0
   53.5570  159.5480   29.7870 O   0  0  0  0  0  0  0  0  0  0  0  0
   51.8890  155.9290   29.1240 C   0  0  0  0  0  0  0  0  0  0  0  0
   52.3530  154.9220   28.2530 C   0  0  0  0  0  0  0  0  0  0  0  0
   52.2460  153.4720   28.6740 C   0  0  0  0  0  0  0  0  0  0  0  0
   51.6360  153.3220   29.8840 F   0  0  0  0  0  0  0  0  0  0  0  0
   51.5340  152.6990   27.8060 F   0  0  0  0  0  0  0  0  0  0  0  0
   53.4600  152.8650   28.7890 F   0  0  0  0  0  0  0  0  0  0  0  0
   53.8409  153.4123   26.5899 H   0  0  0  0  0  0  0  0  0  0  0  0
   52.5897  153.9179   25.4044 H   0  0  0  0  0  0  0  0  0  0  0  0
   54.2004  154.7131   25.4044 H   0  0  0  0  0  0  0  0  0  0  0  0
   53.4011  156.9472   25.6975 H   0  0  0  0  0  0  0  0  0  0  0  0
   52.5739  158.6933   27.2560 H   0  0  0  0  0  0  0  0  0  0  0  0
   47.6544  158.0210   30.7505 H   0  0  0  0  0  0  0  0  0  0  0  0
   46.4652  159.6180   32.2581 H   0  0  0  0  0  0  0  0  0  0  0  0
   47.6780  161.5882   33.1990 H   0  0  0  0  0  0  0  0  0  0  0  0
   49.9300  163.0450   32.4560 H   0  0  0  0  0  0  0  0  0  0  0  0
   53.8560  160.3910   29.5090 H   0  0  0  0  0  0  0  0  0  0  0  0
   51.4516  155.6413   30.0914 H   0  0  0  0  0  0  0  0  0  0  0  0
  1  2  1  0
  2  3  2  0
  3  4  1  0
  4  5  2  0
  5  6  1  0
  6  7  1  0
  7  8  1  0
  8  9  2  0
  9 10  1  0
 10 11  2  0
 11 12  1  0
 12 13  1  0
 12 14  2  0
 14 15  1  0
 15 16  2  0
 15 17  1  0
 17 18  1  0
  5 19  1  0
 19 20  2  0
 20 21  1  0
 21 22  1  0
 21 23  1  0
 21 24  1  0
 20  2  1  0
 17  6  2  0
 14  8  1  0
  1 25  1  0
  1 26  1  0
  1 27  1  0
  3 28  1  0
  4 29  1  0
  9 30  1  0
 10 31  1  0
 11 32  1  0
 13 33  1  0
 18 34  1  0
 19 35  1  0
M  END
>  <meeko>  (6) 
{"is_sidechain": [false], "free_energy": -8.983, "intermolecular_energy": -10.537, "internal_energy": -0.25}

$$$$
cand_011_out
     RDKit          3D

 35 37  0  0  0  0  0  0  0  0999 V2000
   48.9820  158.2440   31.1990 C   0  0  0  0  0  0  0  0  0  0  0  0
   49.8400  157.4780   30.2270 C   0  0  0  0  0  0  0  0  0  0  0  0
   49.4300  156.2040   29.8100 C   0  0  0  0  0  0  0  0  0  0  0  0
   50.1970  155.4660   28.9060 C   0  0  0  0  0  0  0  0  0  0  0  0
   51.3950  155.9770   28.3970 C   0  0  0  0  0  0  0  0  0  0  0  0
   52.1810  155.1850   27.4270 C   0  0  0  0  0  0  0  0  0  0  0  0
   51.9060  153.8250   27.4900 O   0  0  0  0  0  0  0  0  0  0  0  0
   52.5690  152.9740   26.6420 C   0  0  0  0  0  0  0  0  0  0  0  0
   52.2520  151.6180   26.7290 C   0  0  0  0  0  0  0  0  0  0  0  0
   52.8920  150.6980   25.8940 C   0  0  0  0  0  0  0  0  0  0  0  0
   53.8480  151.1350   24.9740 C   0  0  0  0  0  0  0  0  0  0  0  0
   54.1620  152.4890   24.8900 C   0  0  0  0  0  0  0  0  0  0  0  0
   55.1080  152.8470   23.9690 O   0  0  0  0  0  0  0  0  0  0  0  0
   53.5220  153.4090   25.7250 C   0  0  0  0  0  0  0  0  0  0  0  0
   53.8230  154.8400   25.6680 C   0  0  0  0  0  0  0  0  0  0  0  0
   54.6570  155.3010   24.8910 O   0  0  0  0  0  0  0  0  0  0  0  0
   53.0820  155.7320   26.5890 C   0  0  0  0  0  0  0  0  0  0  0  0
   53.3810  157.0810   26.5390 O   0  0  0  0  0  0  0  0  0  0  0  0
   51.7970  157.2590   28.8000 C   0  0  0  0  0  0  0  0  0  0  0  0
   51.0360  158.0210   29.7110 C   0  0  0  0  0  0  0  0  0  0  0  0
   51.5250  159.3950   30.1160 C   0  0  0  0  0  0  0  0  0  0  0  0
   50.8110  160.3980   29.5330 F   0  0  0  0  0  0  0  0  0  0  0  0
   51.4580  159.6280   31.4580 F   0  0  0  0  0  0  0  0  0  0  0  0
   52.8260  159.6140   29.7740 F   0  0  0  0  0  0  0  0  0  0  0  0
   49.2724  157.9847   32.2278 H   0  0  0  0  0  0  0  0  0  0  0  0
   49.1216  159.3234   31.0396 H   0  0  0  0  0  0  0  0  0  0  0  0
   47.9253  157.9834   31.0396 H   0  0  0  0  0  0  0  0  0  0  0  0
   48.4926  155.7804   30.1996 H   0  0  0  0  0  0  0  0  0  0  0  0
   49.8543  154.4696   28.5902 H   0  0  0  0  0  0  0  0  0  0  0  0
   51.4995  151.2736   27.4537 H   0  0  0  0  0  0  0  0  0  0  0  0
   52.6427  149.6287   25.9613 H   0  0  0  0  0  0  0  0  0  0  0  0
   54.3519  150.4108   24.3170 H   0  0  0  0  0  0  0  0  0  0  0  0
   56.0160  152.7020   24.1500 H   0  0  0  0  0  0  0  0  0  0  0  0
   52.8180  157.6680   26.0740 H   0  0  0  0  0  0  0  0  0  0  0  0
   52.7290  157.6807   28.3955 H   0  0  0  0  0  0  0  0  0  0  0  0
  1  2  1  0
  2  3  2  0
  3  4  1  0
  4  5  2  0
  5  6  1  0
  6  7  1  0
  7  8  1  0
  8  9  2  0
  9 10  1  0
 10 11  2  0
 11 12  1  0
 12 13  1  0
 12 14  2  0
 14 15  1  0
 15 16  2  0
 15 17  1  0
 17 18  1  0
  5 19  1  0
 19 20  2  0
 20 21  1  0
 21 22  1  0
 21 23  1  0
 21 24  1  0
 20  2  1  0
 17  6  2  0
 14  8  1  0
  1 25  1  0
  1 26  1  0
  1 27  1  0
  3 28  1  0
  4 29  1  0
  9 30  1  0
 10 31  1  0
 11 32  1  0
 13 33  1  0
 18 34  1  0
 19 35  1  0
M  END
>  <meeko>  (7) 
{"is_sidechain": [false], "free_energy": -8.49, "intermolecular_energy": -10.417, "internal_energy": 0.209}

$$$$
cand_011_out
     RDKit          3D

 35 37  0  0  0  0  0  0  0  0999 V2000
   53.8990  154.2710   25.6190 C   0  0  0  0  0  0  0  0  0  0  0  0
   53.1990  155.1490   26.6220 C   0  0  0  0  0  0  0  0  0  0  0  0
   53.3090  156.5420   26.5050 C   0  0  0  0  0  0  0  0  0  0  0  0
   52.6700  157.3880   27.4140 C   0  0  0  0  0  0  0  0  0  0  0  0
   51.9070  156.8680   28.4650 C   0  0  0  0  0  0  0  0  0  0  0  0
   51.2240  157.7830   29.4030 C   0  0  0  0  0  0  0  0  0  0  0  0
   51.9740  158.9160   29.6960 O   0  0  0  0  0  0  0  0  0  0  0  0
   51.4550  159.8490   30.5580 C   0  0  0  0  0  0  0  0  0  0  0  0
   52.2340  160.9790   30.8130 C   0  0  0  0  0  0  0  0  0  0  0  0
   51.7650  161.9670   31.6810 C   0  0  0  0  0  0  0  0  0  0  0  0
   50.5180  161.8260   32.2950 C   0  0  0  0  0  0  0  0  0  0  0  0
   49.7430  160.6980   32.0380 C   0  0  0  0  0  0  0  0  0  0  0  0
   48.5330  160.6230   32.6730 O   0  0  0  0  0  0  0  0  0  0  0  0
   50.2120  159.7100   31.1680 C   0  0  0  0  0  0  0  0  0  0  0  0
   49.4290  158.5100   30.8720 C   0  0  0  0  0  0  0  0  0  0  0  0
   48.3260  158.3090   31.3780 O   0  0  0  0  0  0  0  0  0  0  0  0
   50.0120  157.5270   29.9300 C   0  0  0  0  0  0  0  0  0  0  0  0
   49.2720  156.3900   29.6650 O   0  0  0  0  0  0  0  0  0  0  0  0
   51.7830  155.4750   28.5710 C   0  0  0  0  0  0  0  0  0  0  0  0
   52.4200  154.6030   27.6640 C   0  0  0  0  0  0  0  0  0  0  0  0
   52.2560  153.1080   27.8350 C   0  0  0  0  0  0  0  0  0  0  0  0
   51.5930  152.7810   28.9800 F   0  0  0  0  0  0  0  0  0  0  0  0
   51.5610  152.5120   26.8250 F   0  0  0  0  0  0  0  0  0  0  0  0
   53.4490  152.4500   27.8920 F   0  0  0  0  0  0  0  0  0  0  0  0
   54.5002  153.5170   26.1482 H   0  0  0  0  0  0  0  0  0  0  0  0
   53.1519  153.7674   24.9880 H   0  0  0  0  0  0  0  0  0  0  0  0
   54.5564  154.8872   24.9880 H   0  0  0  0  0  0  0  0  0  0  0  0
   53.9056  156.9734   25.6877 H   0  0  0  0  0  0  0  0  0  0  0  0
   52.7679  158.4779   27.3021 H   0  0  0  0  0  0  0  0  0  0  0  0
   53.2162  161.0909   30.3306 H   0  0  0  0  0  0  0  0  0  0  0  0
   52.3783  162.8578   31.8817 H   0  0  0  0  0  0  0  0  0  0  0  0
   50.1493  162.6040   32.9797 H   0  0  0  0  0  0  0  0  0  0  0  0
   47.8570  160.0740   32.3280 H   0  0  0  0  0  0  0  0  0  0  0  0
   48.3600  156.3640   29.8800 H   0  0  0  0  0  0  0  0  0  0  0  0
   51.1731  155.0517   29.3826 H   0  0  0  0  0  0  0  0  0  0  0  0
  1  2  1  0
  2  3  2  0
  3  4  1  0
  4  5  2  0
  5  6  1  0
  6  7  1  0
  7  8  1  0
  8  9  2  0
  9 10  1  0
 10 11  2  0
 11 12  1  0
 12 13  1  0
 12 14  2  0
 14 15  1  0
 15 16  2  0
 15 17  1  0
 17 18  1  0
  5 19  1  0
 19 20  2  0
 20 21  1  0
 21 22  1  0
 21 23  1  0
 21 24  1  0
 20  2  1  0
 17  6  2  0
 14  8  1  0
  1 25  1  0
  1 26  1  0
  1 27  1  0
  3 28  1  0
  4 29  1  0
  9 30  1  0
 10 31  1  0
 11 32  1  0
 13 33  1  0
 18 34  1  0
 19 35  1  0
M  END
>  <meeko>  (8) 
{"is_sidechain": [false], "free_energy": -8.106, "intermolecular_energy": -9.772, "internal_energy": 0.015}

$$$$
