cand_049_out
     RDKit          3D

 47 49  0  0  0  0  0  0  0  0999 V2000
   52.3800  161.3720   31.8780 C   0  0  0  0  0  0  0  0  0  0  0  0
   52.2290  161.0060   30.4080 C   0  0  0  0  0  0  0  0  0  0  0  0
   51.3630  159.7800   30.2190 C   0  0  0  0  0  0  0  0  0  0  0  0
   51.9310  158.6680   29.5620 C   0  0  0  0  0  0  0  0  0  0  0  0
   51.2210  157.4730   29.3760 C   0  0  0  0  0  0  0  0  0  0  0  0
   51.8510  156.3460   28.6550 C   0  0  0  0  0  0  0  0  0  0  0  0
   52.4230  156.7310   27.4480 O   0  0  0  0  0  0  0  0  0  0  0  0
   53.0430  155.7830   26.6750 C   0  0  0  0  0  0  0  0  0  0  0  0
   53.5910  156.2100   25.4660 C   0  0  0  0  0  0  0  0  0  0  0  0
   54.2380  155.2960   24.6320 C   0  0  0  0  0  0  0  0  0  0  0  0
   54.3370  153.9550   25.0080 C   0  0  0  0  0  0  0  0  0  0  0  0
   53.7900  153.5300   26.2160 C   0  0  0  0  0  0  0  0  0  0  0  0
   53.9240  152.2050   26.5230 O   0  0  0  0  0  0  0  0  0  0  0  0
   53.1420  154.4460   27.0490 C   0  0  0  0  0  0  0  0  0  0  0  0
   52.5520  154.0420   28.3270 C   0  0  0  0  0  0  0  0  0  0  0  0
   52.6060  152.8820   28.7300 O   0  0  0  0  0  0  0  0  0  0  0  0
   51.8810  155.0890   29.1330 C   0  0  0  0  0  0  0  0  0  0  0  0
   51.3400  154.6980   30.3440 O   0  0  0  0  0  0  0  0  0  0  0  0
   49.9100  157.4020   29.8540 C   0  0  0  0  0  0  0  0  0  0  0  0
   49.3330  158.4910   30.5110 C   0  0  0  0  0  0  0  0  0  0  0  0
   50.0430  159.6880   30.7030 C   0  0  0  0  0  0  0  0  0  0  0  0
   49.3450  160.8290   31.4160 C   0  0  0  0  0  0  0  0  0  0  0  0
   48.4830  160.3840   32.6150 C   0  0  0  0  0  0  0  0  0  0  0  0
   48.4430  161.4370   33.7250 C   0  0  0  0  0  0  0  0  0  0  0  0
   47.0580  160.0830   32.1430 C   0  0  0  0  0  0  0  0  0  0  0  0
   52.0344  160.5344   32.5018 H   0  0  0  0  0  0  0  0  0  0  0  0
   53.4376  161.5805   32.0972 H   0  0  0  0  0  0  0  0  0  0  0  0
   51.7771  162.2655   32.0972 H   0  0  0  0  0  0  0  0  0  0  0  0
   51.7691  161.8519   29.8761 H   0  0  0  0  0  0  0  0  0  0  0  0
   53.2288  160.7827   30.0074 H   0  0  0  0  0  0  0  0  0  0  0  0
   52.9616  158.7406   29.1844 H   0  0  0  0  0  0  0  0  0  0  0  0
   53.5136  157.2664   25.1694 H   0  0  0  0  0  0  0  0  0  0  0  0
   54.6700  155.6327   23.6781 H   0  0  0  0  0  0  0  0  0  0  0  0
   54.8465  153.2350   24.3507 H   0  0  0  0  0  0  0  0  0  0  0  0
   53.6400  151.5510   25.9140 H   0  0  0  0  0  0  0  0  0  0  0  0
   51.3210  153.7900   30.5780 H   0  0  0  0  0  0  0  0  0  0  0  0
   49.3271  156.4801   29.7116 H   0  0  0  0  0  0  0  0  0  0  0  0
   48.3020  158.4099   30.8857 H   0  0  0  0  0  0  0  0  0  0  0  0
   50.1108  161.5291   31.7812 H   0  0  0  0  0  0  0  0  0  0  0  0
   48.6630  161.2909   30.6870 H   0  0  0  0  0  0  0  0  0  0  0  0
   48.9453  159.4780   33.0338 H   0  0  0  0  0  0  0  0  0  0  0  0
   48.4620  160.9377   34.7049 H   0  0  0  0  0  0  0  0  0  0  0  0
   49.3166  162.0992   33.6339 H   0  0  0  0  0  0  0  0  0  0  0  0
   47.5216  162.0310   33.6339 H   0  0  0  0  0  0  0  0  0  0  0  0
   46.4039  159.9448   33.0165 H   0  0  0  0  0  0  0  0  0  0  0  0
   46.6875  160.9227   31.5367 H   0  0  0  0  0  0  0  0  0  0  0  0
   47.0588  159.1652   31.5367 H   0  0  0  0  0  0  0  0  0  0  0  0
  1  2  1  0
  2  3  1  0
  3  4  2  0
  4  5  1  0
  5  6  1  0
  6  7  1  0
  7  8  1  0
  8  9  2  0
  9 10  1  0
 10 11  2  0
 11 12  1  0
 12 13  1  0
 12 14  2  0
 14 15  1  0
 15 16  2  0
 15 17  1  0
 17 18  1  0
  5 19  2  0
 19 20  1  0
 20 21  2  0
 21 22  1  0
 22 23  1  0
 23 24  1  0
 23 25  1  0
 21  3  1  0
 17  6  2  0
 14  8  1  0
  1 26  1  0
  1 27  1  0
  1 28  1  0
  2 29  1  0
  2 30  1  0
  4 31  1  0
  9 32  1  0
 10 33  1  0
 11 34  1  0
 13 35  1  0
 18 36  1  0
 19 37  1  0
 20 38  1  0
 22 39  1  0
 22 40  1  0
 23 41  1  0
 24 42  1  0
 24 43  1  0
 24 44  1  0
 25 45  1  0
 25 46  1  0
 25 47  1  0
M  END
>  <meeko>  (1) 
{"is_sidechain": [false], "free_energy": -10.703, "intermolecular_energy": -13.831, "internal_energy": -0.012}

$$$$
cand_049_out
     RDKit          3D

 47 49  0  0  0  0  0  0  0  0999 V2000
   51.8810  160.9000   31.7770 C   0  0  0  0  0  0  0  0  0  0  0  0
   51.8690  160.4780   30.3140 C   0  0  0  0  0  0  0  0  0  0  0  0
   51.2440  159.1130   30.1270 C   0  0  0  0  0  0  0  0  0  0  0  0
   51.9130  158.1900   29.2960 C   0  0  0  0  0  0  0  0  0  0  0  0
   51.4340  156.8880   29.0940 C   0  0  0  0  0  0  0  0  0  0  0  0
   52.1570  155.9680   28.1890 C   0  0  0  0  0  0  0  0  0  0  0  0
   52.7220  156.6180   27.0980 O   0  0  0  0  0  0  0  0  0  0  0  0
   53.4230  155.8830   26.1780 C   0  0  0  0  0  0  0  0  0  0  0  0
   53.9610  156.5740   25.0910 C   0  0  0  0  0  0  0  0  0  0  0  0
   54.6880  155.8850   24.1180 C   0  0  0  0  0  0  0  0  0  0  0  0
   54.8770  154.5060   24.2310 C   0  0  0  0  0  0  0  0  0  0  0  0
   54.3400  153.8180   25.3160 C   0  0  0  0  0  0  0  0  0  0  0  0
   54.5640  152.4700   25.3660 O   0  0  0  0  0  0  0  0  0  0  0  0
   53.6120  154.5090   26.2900 C   0  0  0  0  0  0  0  0  0  0  0  0
   53.0300  153.8250   27.4460 C   0  0  0  0  0  0  0  0  0  0  0  0
   53.1600  152.6150   27.6190 O   0  0  0  0  0  0  0  0  0  0  0  0
   52.2700  154.6470   28.4170 C   0  0  0  0  0  0  0  0  0  0  0  0
   51.7370  153.9920   29.5120 O   0  0  0  0  0  0  0  0  0  0  0  0
   50.2510  156.5120   29.7350 C   0  0  0  0  0  0  0  0  0  0  0  0
   49.5770  157.4100   30.5660 C   0  0  0  0  0  0  0  0  0  0  0  0
   50.0570  158.7140   30.7740 C   0  0  0  0  0  0  0  0  0  0  0  0
   49.2640  159.6340   31.6810 C   0  0  0  0  0  0  0  0  0  0  0  0
   48.2130  160.4870   30.9420 C   0  0  0  0  0  0  0  0  0  0  0  0
   46.7880  159.9750   31.1680 C   0  0  0  0  0  0  0  0  0  0  0  0
   48.3130  161.9440   31.4040 C   0  0  0  0  0  0  0  0  0  0  0  0
   51.8556  160.0056   32.4168 H   0  0  0  0  0  0  0  0  0  0  0  0
   52.7958  161.4741   31.9855 H   0  0  0  0  0  0  0  0  0  0  0  0
   51.0003  161.5252   31.9855 H   0  0  0  0  0  0  0  0  0  0  0  0
   51.2930  161.2154   29.7357 H   0  0  0  0  0  0  0  0  0  0  0  0
   52.9108  160.4273   29.9647 H   0  0  0  0  0  0  0  0  0  0  0  0
   52.8392  158.5015   28.7909 H   0  0  0  0  0  0  0  0  0  0  0  0
   53.8124  157.6602   25.0010 H   0  0  0  0  0  0  0  0  0  0  0  0
   55.1124  156.4292   23.2614 H   0  0  0  0  0  0  0  0  0  0  0  0
   55.4494  153.9639   23.4638 H   0  0  0  0  0  0  0  0  0  0  0  0
   55.4320  152.1440   25.5000 H   0  0  0  0  0  0  0  0  0  0  0  0
   51.0140  154.3670   29.9760 H   0  0  0  0  0  0  0  0  0  0  0  0
   49.8468  155.5001   29.5840 H   0  0  0  0  0  0  0  0  0  0  0  0
   48.6519  157.0898   31.0676 H   0  0  0  0  0  0  0  0  0  0  0  0
   48.7453  159.0184   32.4307 H   0  0  0  0  0  0  0  0  0  0  0  0
   49.9825  160.3338   32.1327 H   0  0  0  0  0  0  0  0  0  0  0  0
   48.4264  160.4132   29.8654 H   0  0  0  0  0  0  0  0  0  0  0  0
   46.5908  159.9042   32.2479 H   0  0  0  0  0  0  0  0  0  0  0  0
   46.0710  160.6717   30.7093 H   0  0  0  0  0  0  0  0  0  0  0  0
   46.6784  158.9813   30.7093 H   0  0  0  0  0  0  0  0  0  0  0  0
   48.3155  161.9807   32.5034 H   0  0  0  0  0  0  0  0  0  0  0  0
   49.2437  162.3873   31.0202 H   0  0  0  0  0  0  0  0  0  0  0  0
   47.4516  162.5103   31.0202 H   0  0  0  0  0  0  0  0  0  0  0  0
  1  2  1  0
  2  3  1  0
  3  4  2  0
  4  5  1  0
  5  6  1  0
  6  7  1  0
  7  8  1  0
  8  9  2  0
  9 10  1  0
 10 11  2  0
 11 12  1  0
 12 13  1  0
 12 14  2  0
 14 15  1  0
 15 16  2  0
 15 17  1  0
 17 18  1  0
  5 19  2  0
 19 20  1  0
 20 21  2  0
 21 22  1  0
 22 23  1  0
 23 24  1  0
 23 25  1  0
 21  3  1  0
 17  6  2  0
 14  8  1  0
  1 26  1  0
  1 27  1  0
  1 28  1  0
  2 29  1  0
  2 30  1  0
  4 31  1  0
  9 32  1  0
 10 33  1  0
 11 34  1  0
 13 35  1  0
 18 36  1  0
 19 37  1  0
 20 38  1  0
 22 39  1  0
 22 40  1  0
 23 41  1  0
 24 42  1  0
 24 43  1  0
 24 44  1  0
 25 45  1  0
 25 46  1  0
 25 47  1  0
M  END
>  <meeko>  (2) 
{"is_sidechain": [false], "free_energy": -10.328, "intermolecular_energy": -13.382, "internal_energy": 0.022}

$$$$
cand_049_out
     RDKit          3D

 47 49  0  0  0  0  0  0  0  0999 V2000
   54.1730  155.9410   24.7500 C   0  0  0  0  0  0  0  0  0  0  0  0
   53.0480  154.9270   24.9170 C   0  0  0  0  0  0  0  0  0  0  0  0
   52.6500  154.7620   26.3670 C   0  0  0  0  0  0  0  0  0  0  0  0
   52.3090  155.9220   27.0920 C   0  0  0  0  0  0  0  0  0  0  0  0
   51.8880  155.8670   28.4280 C   0  0  0  0  0  0  0  0  0  0  0  0
   51.5710  157.1160   29.1540 C   0  0  0  0  0  0  0  0  0  0  0  0
   50.2610  157.1520   29.6190 O   0  0  0  0  0  0  0  0  0  0  0  0
   49.8330  158.2550   30.3100 C   0  0  0  0  0  0  0  0  0  0  0  0
   48.5070  158.2550   30.7460 C   0  0  0  0  0  0  0  0  0  0  0  0
   48.0070  159.3480   31.4580 C   0  0  0  0  0  0  0  0  0  0  0  0
   48.8320  160.4400   31.7340 C   0  0  0  0  0  0  0  0  0  0  0  0
   50.1550  160.4380   31.2980 C   0  0  0  0  0  0  0  0  0  0  0  0
   50.9070  161.5380   31.6030 O   0  0  0  0  0  0  0  0  0  0  0  0
   50.6540  159.3440   30.5860 C   0  0  0  0  0  0  0  0  0  0  0  0
   52.0380  159.3020   30.1090 C   0  0  0  0  0  0  0  0  0  0  0  0
   52.8260  160.2210   30.3190 O   0  0  0  0  0  0  0  0  0  0  0  0
   52.4660  158.1000   29.3570 C   0  0  0  0  0  0  0  0  0  0  0  0
   53.7790  158.0650   28.9230 O   0  0  0  0  0  0  0  0  0  0  0  0
   51.8190  154.6170   29.0480 C   0  0  0  0  0  0  0  0  0  0  0  0
   52.1480  153.4560   28.3450 C   0  0  0  0  0  0  0  0  0  0  0  0
   52.5660  153.5080   27.0040 C   0  0  0  0  0  0  0  0  0  0  0  0
   52.9160  152.2060   26.3110 C   0  0  0  0  0  0  0  0  0  0  0  0
   54.0650  152.3300   25.2900 C   0  0  0  0  0  0  0  0  0  0  0  0
   55.4360  152.4120   25.9650 C   0  0  0  0  0  0  0  0  0  0  0  0
   54.0350  151.1340   24.3330 C   0  0  0  0  0  0  0  0  0  0  0  0
   54.5281  156.2611   25.7407 H   0  0  0  0  0  0  0  0  0  0  0  0
   55.0028  155.4798   24.1944 H   0  0  0  0  0  0  0  0  0  0  0  0
   53.8002  156.8141   24.1944 H   0  0  0  0  0  0  0  0  0  0  0  0
   52.1731  155.2686   24.3444 H   0  0  0  0  0  0  0  0  0  0  0  0
   53.4071  153.9547   24.5486 H   0  0  0  0  0  0  0  0  0  0  0  0
   52.3753  156.9005   26.5939 H   0  0  0  0  0  0  0  0  0  0  0  0
   47.8563  157.3951   30.5291 H   0  0  0  0  0  0  0  0  0  0  0  0
   46.9620  159.3483   31.8016 H   0  0  0  0  0  0  0  0  0  0  0  0
   48.4380  161.3004   32.2947 H   0  0  0  0  0  0  0  0  0  0  0  0
   50.7220  162.3610   31.1940 H   0  0  0  0  0  0  0  0  0  0  0  0
   54.2610  157.2610   28.9510 H   0  0  0  0  0  0  0  0  0  0  0  0
   51.5027  154.5466   30.0992 H   0  0  0  0  0  0  0  0  0  0  0  0
   52.0786  152.4816   28.8507 H   0  0  0  0  0  0  0  0  0  0  0  0
   53.2114  151.4744   27.0775 H   0  0  0  0  0  0  0  0  0  0  0  0
   52.0231  151.8932   25.7499 H   0  0  0  0  0  0  0  0  0  0  0  0
   53.9127  153.2672   24.7346 H   0  0  0  0  0  0  0  0  0  0  0  0
   55.3079  152.4043   27.0575 H   0  0  0  0  0  0  0  0  0  0  0  0
   56.0464  151.5488   25.6613 H   0  0  0  0  0  0  0  0  0  0  0  0
   55.9392  153.3418   25.6613 H   0  0  0  0  0  0  0  0  0  0  0  0
   54.0116  150.2001   24.9138 H   0  0  0  0  0  0  0  0  0  0  0  0
   53.1381  151.1941   23.6990 H   0  0  0  0  0  0  0  0  0  0  0  0
   54.9338  151.1491   23.6990 H   0  0  0  0  0  0  0  0  0  0  0  0
  1  2  1  0
  2  3  1  0
  3  4  2  0
  4  5  1  0
  5  6  1  0
  6  7  1  0
  7  8  1  0
  8  9  2  0
  9 10  1  0
 10 11  2  0
 11 12  1  0
 12 13  1  0
 12 14  2  0
 14 15  1  0
 15 16  2  0
 15 17  1  0
 17 18  1  0
  5 19  2  0
 19 20  1  0
 20 21  2  0
 21 22  1  0
 22 23  1  0
 23 24  1  0
 23 25  1  0
 21  3  1  0
 17  6  2  0
 14  8  1  0
  1 26  1  0
  1 27  1  0
  1 28  1  0
  2 29  1  0
  2 30  1  0
  4 31  1  0
  9 32  1  0
 10 33  1  0
 11 34  1  0
 13 35  1  0
 18 36  1  0
 19 37  1  0
 20 38  1  0
 22 39  1  0
 22 40  1  0
 23 41  1  0
 24 42  1  0
 24 43  1  0
 24 44  1  0
 25 45  1  0
 25 46  1  0
 25 47  1  0
M  END
>  <meeko>  (3) 
{"is_sidechain": [false], "free_energy": -10.315, "intermolecular_energy": -13.255, "internal_energy": -0.088}

$$$$
cand_049_out
     RDKit          3D

 47 49  0  0  0  0  0  0  0  0999 V2000
   47.6400  158.9720   29.8690 C   0  0  0  0  0  0  0  0  0  0  0  0
   48.6370  158.6510   30.9740 C   0  0  0  0  0  0  0  0  0  0  0  0
   50.0510  158.5560   30.4470 C   0  0  0  0  0  0  0  0  0  0  0  0
   50.4130  157.3910   29.7390 C   0  0  0  0  0  0  0  0  0  0  0  0
   51.6880  157.2290   29.1770 C   0  0  0  0  0  0  0  0  0  0  0  0
   52.0270  155.9750   28.4690 C   0  0  0  0  0  0  0  0  0  0  0  0
   52.5500  156.1960   27.2000 O   0  0  0  0  0  0  0  0  0  0  0  0
   52.9080  155.1180   26.4330 C   0  0  0  0  0  0  0  0  0  0  0  0
   53.4160  155.3860   25.1620 C   0  0  0  0  0  0  0  0  0  0  0  0
   53.8010  154.3320   24.3290 C   0  0  0  0  0  0  0  0  0  0  0  0
   53.6800  153.0130   24.7690 C   0  0  0  0  0  0  0  0  0  0  0  0
   53.1740  152.7480   26.0390 C   0  0  0  0  0  0  0  0  0  0  0  0
   53.0830  151.4340   26.4060 O   0  0  0  0  0  0  0  0  0  0  0  0
   52.7880  153.8020   26.8710 C   0  0  0  0  0  0  0  0  0  0  0  0
   52.2500  153.5690   28.2120 C   0  0  0  0  0  0  0  0  0  0  0  0
   52.1200  152.4360   28.6720 O   0  0  0  0  0  0  0  0  0  0  0  0
   51.8630  154.7540   29.0110 C   0  0  0  0  0  0  0  0  0  0  0  0
   51.3700  154.5210   30.2830 O   0  0  0  0  0  0  0  0  0  0  0  0
   52.6180  158.2570   29.3410 C   0  0  0  0  0  0  0  0  0  0  0  0
   52.2770  159.4210   30.0340 C   0  0  0  0  0  0  0  0  0  0  0  0
   50.9990  159.5890   30.5950 C   0  0  0  0  0  0  0  0  0  0  0  0
   50.7080  160.8740   31.3420 C   0  0  0  0  0  0  0  0  0  0  0  0
   49.4140  160.8310   32.1810 C   0  0  0  0  0  0  0  0  0  0  0  0
   49.6980  160.7320   33.6820 C   0  0  0  0  0  0  0  0  0  0  0  0
   48.5750  162.0810   31.8990 C   0  0  0  0  0  0  0  0  0  0  0  0
   46.6834  159.2800   30.3163 H   0  0  0  0  0  0  0  0  0  0  0  0
   48.0334  159.7889   29.2462 H   0  0  0  0  0  0  0  0  0  0  0  0
   47.4829  158.0790   29.2462 H   0  0  0  0  0  0  0  0  0  0  0  0
   48.5933  159.4449   31.7341 H   0  0  0  0  0  0  0  0  0  0  0  0
   48.3670  157.6752   31.4040 H   0  0  0  0  0  0  0  0  0  0  0  0
   49.6731  156.5852   29.6241 H   0  0  0  0  0  0  0  0  0  0  0  0
   53.5135  156.4255   24.8158 H   0  0  0  0  0  0  0  0  0  0  0  0
   54.1998  154.5421   23.3256 H   0  0  0  0  0  0  0  0  0  0  0  0
   53.9840  152.1837   24.1133 H   0  0  0  0  0  0  0  0  0  0  0  0
   53.2110  151.1880   27.3010 H   0  0  0  0  0  0  0  0  0  0  0  0
   51.4860  155.1640   30.9550 H   0  0  0  0  0  0  0  0  0  0  0  0
   53.6288  158.1495   28.9206 H   0  0  0  0  0  0  0  0  0  0  0  0
   53.0232  160.2219   30.1429 H   0  0  0  0  0  0  0  0  0  0  0  0
   51.5516  161.0806   32.0170 H   0  0  0  0  0  0  0  0  0  0  0  0
   50.5708  161.6594   30.5842 H   0  0  0  0  0  0  0  0  0  0  0  0
   48.8610  159.9265   31.8878 H   0  0  0  0  0  0  0  0  0  0  0  0
   48.8058  161.0430   34.2453 H   0  0  0  0  0  0  0  0  0  0  0  0
   49.9505  159.6928   33.9396 H   0  0  0  0  0  0  0  0  0  0  0  0
   50.5418  161.3890   33.9396 H   0  0  0  0  0  0  0  0  0  0  0  0
   48.2677  162.5388   32.8509 H   0  0  0  0  0  0  0  0  0  0  0  0
   49.1731  162.8015   31.3218 H   0  0  0  0  0  0  0  0  0  0  0  0
   47.6816  161.8004   31.3218 H   0  0  0  0  0  0  0  0  0  0  0  0
  1  2  1  0
  2  3  1  0
  3  4  2  0
  4  5  1  0
  5  6  1  0
  6  7  1  0
  7  8  1  0
  8  9  2  0
  9 10  1  0
 10 11  2  0
 11 12  1  0
 12 13  1  0
 12 14  2  0
 14 15  1  0
 15 16  2  0
 15 17  1  0
 17 18  1  0
  5 19  2  0
 19 20  1  0
 20 21  2  0
 21 22  1  0
 22 23  1  0
 23 24  1  0
 23 25  1  0
 21  3  1  0
 17  6  2  0
 14  8  1  0
  1 26  1  0
  1 27  1  0
  1 28  1  0
  2 29  1  0
  2 30  1  0
  4 31  1  0
  9 32  1  0
 10 33  1  0
 11 34  1  0
 13 35  1  0
 18 36  1  0
 19 37  1  0
 20 38  1  0
 22 39  1  0
 22 40  1  0
 23 41  1  0
 24 42  1  0
 24 43  1  0
 24 44  1  0
 25 45  1  0
 25 46  1  0
 25 47  1  0
M  END
>  <meeko>  (4) 
{"is_sidechain": [false], "free_energy": -10.059, "intermolecular_energy": -13.537, "internal_energy": 0.525}

$$$$
cand_049_out
     RDKit          3D

 47 49  0  0  0  0  0  0  0  0999 V2000
   52.8790  156.0510   24.7220 C   0  0  0  0  0  0  0  0  0  0  0  0
   53.7670  156.0800   25.9590 C   0  0  0  0  0  0  0  0  0  0  0  0
   53.0070  155.6900   27.2070 C   0  0  0  0  0  0  0  0  0  0  0  0
   52.2980  156.7020   27.8890 C   0  0  0  0  0  0  0  0  0  0  0  0
   51.5310  156.4310   29.0310 C   0  0  0  0  0  0  0  0  0  0  0  0
   50.8300  157.5320   29.7260 C   0  0  0  0  0  0  0  0  0  0  0  0
   51.6760  158.5840   30.0610 O   0  0  0  0  0  0  0  0  0  0  0  0
   51.1560  159.6730   30.7110 C   0  0  0  0  0  0  0  0  0  0  0  0
   52.0430  160.6980   31.0390 C   0  0  0  0  0  0  0  0  0  0  0  0
   51.5780  161.8370   31.7000 C   0  0  0  0  0  0  0  0  0  0  0  0
   50.2260  161.9500   32.0320 C   0  0  0  0  0  0  0  0  0  0  0  0
   49.3420  160.9260   31.7040 C   0  0  0  0  0  0  0  0  0  0  0  0
   48.0330  161.1020   32.0570 O   0  0  0  0  0  0  0  0  0  0  0  0
   49.8090  159.7860   31.0420 C   0  0  0  0  0  0  0  0  0  0  0  0
   48.9140  158.6860   30.6780 C   0  0  0  0  0  0  0  0  0  0  0  0
   47.7120  158.7150   30.9300 O   0  0  0  0  0  0  0  0  0  0  0  0
   49.5100  157.5200   29.9860 C   0  0  0  0  0  0  0  0  0  0  0  0
   48.6520  156.4930   29.6350 O   0  0  0  0  0  0  0  0  0  0  0  0
   51.4850  155.1160   29.5000 C   0  0  0  0  0  0  0  0  0  0  0  0
   52.1760  154.1000   28.8360 C   0  0  0  0  0  0  0  0  0  0  0  0
   52.9420  154.3670   27.6890 C   0  0  0  0  0  0  0  0  0  0  0  0
   53.6720  153.2140   27.0290 C   0  0  0  0  0  0  0  0  0  0  0  0
   52.8970  152.5670   25.8640 C   0  0  0  0  0  0  0  0  0  0  0  0
   53.7720  152.3660   24.6240 C   0  0  0  0  0  0  0  0  0  0  0  0
   52.3230  151.2200   26.3110 C   0  0  0  0  0  0  0  0  0  0  0  0
   51.8233  156.0165   25.0292 H   0  0  0  0  0  0  0  0  0  0  0  0
   53.0568  156.9554   24.1217 H   0  0  0  0  0  0  0  0  0  0  0  0
   53.1155  155.1601   24.1217 H   0  0  0  0  0  0  0  0  0  0  0  0
   54.6002  155.3764   25.8154 H   0  0  0  0  0  0  0  0  0  0  0  0
   54.1350  157.1082   26.0909 H   0  0  0  0  0  0  0  0  0  0  0  0
   52.3487  157.7346   27.5132 H   0  0  0  0  0  0  0  0  0  0  0  0
   53.1078  160.6094   30.7774 H   0  0  0  0  0  0  0  0  0  0  0  0
   52.2770  162.6458   31.9594 H   0  0  0  0  0  0  0  0  0  0  0  0
   49.8601  162.8475   32.5523 H   0  0  0  0  0  0  0  0  0  0  0  0
   47.3530  160.9260   31.4370 H   0  0  0  0  0  0  0  0  0  0  0  0
   48.7190  156.0950   28.7890 H   0  0  0  0  0  0  0  0  0  0  0  0
   50.8993  154.8786   30.4003 H   0  0  0  0  0  0  0  0  0  0  0  0
   52.1193  153.0703   29.2187 H   0  0  0  0  0  0  0  0  0  0  0  0
   54.6310  153.5882   26.6412 H   0  0  0  0  0  0  0  0  0  0  0  0
   53.8004  152.4369   27.7968 H   0  0  0  0  0  0  0  0  0  0  0  0
   52.0840  153.2545   25.5877 H   0  0  0  0  0  0  0  0  0  0  0  0
   54.8003  152.1298   24.9352 H   0  0  0  0  0  0  0  0  0  0  0  0
   53.3711  151.5365   24.0229 H   0  0  0  0  0  0  0  0  0  0  0  0
   53.7733  153.2872   24.0229 H   0  0  0  0  0  0  0  0  0  0  0  0
   52.3042  151.1760   27.4100 H   0  0  0  0  0  0  0  0  0  0  0  0
   51.2999  151.1102   25.9221 H   0  0  0  0  0  0  0  0  0  0  0  0
   52.9524  150.4060   25.9221 H   0  0  0  0  0  0  0  0  0  0  0  0
  1  2  1  0
  2  3  1  0
  3  4  2  0
  4  5  1  0
  5  6  1  0
  6  7  1  0
  7  8  1  0
  8  9  2  0
  9 10  1  0
 10 11  2  0
 11 12  1  0
 12 13  1  0
 12 14  2  0
 14 15  1  0
 15 16  2  0
 15 17  1  0
 17 18  1  0
  5 19  2  0
 19 20  1  0
 20 21  2  0
 21 22  1  0
 22 23  1  0
 23 24  1  0
 23 25  1  0
 21  3  1  0
 17  6  2  0
 14  8  1  0
  1 26  1  0
  1 27  1  0
  1 28  1  0
  2 29  1  0
  2 30  1  0
  4 31  1  0
  9 32  1  0
 10 33  1  0
 11 34  1  0
 13 35  1  0
 18 36  1  0
 19 37  1  0
 20 38  1  0
 22 39  1  0
 22 40  1  0
 23 41  1  0
 24 42  1  0
 24 43  1  0
 24 44  1  0
 25 45  1  0
 25 46  1  0
 25 47  1  0
M  END
>  <meeko>  (5) 
{"is_sidechain": [false], "free_energy": -9.409, "intermolecular_energy": -11.308, "internal_energy": -0.864}

$$$$
cand_049_out
     RDKit          3D

 47 49  0  0  0  0  0  0  0  0999 V2000
   51.6070  152.4020   27.7450 C   0  0  0  0  0  0  0  0  0  0  0  0
   52.0060  153.3540   28.8640 C   0  0  0  0  0  0  0  0  0  0  0  0
   52.2200  154.7630   28.3550 C   0  0  0  0  0  0  0  0  0  0  0  0
   51.7460  155.8280   29.1490 C   0  0  0  0  0  0  0  0  0  0  0  0
   51.9320  157.1690   28.7810 C   0  0  0  0  0  0  0  0  0  0  0  0
   51.3900  158.2490   29.6330 C   0  0  0  0  0  0  0  0  0  0  0  0
   50.0450  158.0720   29.9380 O   0  0  0  0  0  0  0  0  0  0  0  0
   49.4150  159.0020   30.7230 C   0  0  0  0  0  0  0  0  0  0  0  0
   48.0620  158.7920   30.9930 C   0  0  0  0  0  0  0  0  0  0  0  0
   47.3600  159.7010   31.7880 C   0  0  0  0  0  0  0  0  0  0  0  0
   48.0110  160.8190   32.3130 C   0  0  0  0  0  0  0  0  0  0  0  0
   49.3610  161.0270   32.0430 C   0  0  0  0  0  0  0  0  0  0  0  0
   49.9360  162.1410   32.5890 O   0  0  0  0  0  0  0  0  0  0  0  0
   50.0620  160.1170   31.2470 C   0  0  0  0  0  0  0  0  0  0  0  0
   51.4820  160.2970   30.9380 C   0  0  0  0  0  0  0  0  0  0  0  0
   52.1250  161.2520   31.3690 O   0  0  0  0  0  0  0  0  0  0  0  0
   52.1310  159.2800   30.0790 C   0  0  0  0  0  0  0  0  0  0  0  0
   53.4760  159.4540   29.8060 O   0  0  0  0  0  0  0  0  0  0  0  0
   52.6010  157.4390   27.5850 C   0  0  0  0  0  0  0  0  0  0  0  0
   53.0830  156.3970   26.7890 C   0  0  0  0  0  0  0  0  0  0  0  0
   52.9010  155.0530   27.1560 C   0  0  0  0  0  0  0  0  0  0  0  0
   53.4420  153.9790   26.2350 C   0  0  0  0  0  0  0  0  0  0  0  0
   53.6670  154.4530   24.7850 C   0  0  0  0  0  0  0  0  0  0  0  0
   54.9050  155.3430   24.6490 C   0  0  0  0  0  0  0  0  0  0  0  0
   53.8050  153.2390   23.8610 C   0  0  0  0  0  0  0  0  0  0  0  0
   51.2162  151.4697   28.1787 H   0  0  0  0  0  0  0  0  0  0  0  0
   50.8299  152.8714   27.1239 H   0  0  0  0  0  0  0  0  0  0  0  0
   52.4866  152.1771   27.1239 H   0  0  0  0  0  0  0  0  0  0  0  0
   51.2087  153.3666   29.6217 H   0  0  0  0  0  0  0  0  0  0  0  0
   52.9543  152.9982   29.2931 H   0  0  0  0  0  0  0  0  0  0  0  0
   51.2146  155.6004   30.0848 H   0  0  0  0  0  0  0  0  0  0  0  0
   47.5487  157.9112   30.5800 H   0  0  0  0  0  0  0  0  0  0  0  0
   46.2934  159.5359   32.0006 H   0  0  0  0  0  0  0  0  0  0  0  0
   47.4580  161.5346   32.9392 H   0  0  0  0  0  0  0  0  0  0  0  0
   50.8400  162.1270   32.8380 H   0  0  0  0  0  0  0  0  0  0  0  0
   54.1010  158.8270   30.1140 H   0  0  0  0  0  0  0  0  0  0  0  0
   52.7497  158.4815   27.2670 H   0  0  0  0  0  0  0  0  0  0  0  0
   53.6157  156.6335   25.8561 H   0  0  0  0  0  0  0  0  0  0  0  0
   54.4040  153.6297   26.6382 H   0  0  0  0  0  0  0  0  0  0  0  0
   52.6852  153.1817   26.1960 H   0  0  0  0  0  0  0  0  0  0  0  0
   52.7927  155.0551   24.4967 H   0  0  0  0  0  0  0  0  0  0  0  0
   55.2763  155.6100   25.6494 H   0  0  0  0  0  0  0  0  0  0  0  0
   55.6884  154.8000   24.0999 H   0  0  0  0  0  0  0  0  0  0  0  0
   54.6399  156.2586   24.0999 H   0  0  0  0  0  0  0  0  0  0  0  0
   53.9087  152.3269   24.4670 H   0  0  0  0  0  0  0  0  0  0  0  0
   52.9103  153.1577   23.2262 H   0  0  0  0  0  0  0  0  0  0  0  0
   54.6951  153.3606   23.2262 H   0  0  0  0  0  0  0  0  0  0  0  0
  1  2  1  0
  2  3  1  0
  3  4  2  0
  4  5  1  0
  5  6  1  0
  6  7  1  0
  7  8  1  0
  8  9  2  0
  9 10  1  0
 10 11  2  0
 11 12  1  0
 12 13  1  0
 12 14  2  0
 14 15  1  0
 15 16  2  0
 15 17  1  0
 17 18  1  0
  5 19  2  0
 19 20  1  0
 20 21  2  0
 21 22  1  0
 22 23  1  0
 23 24  1  0
 23 25  1  0
 21  3  1  0
 17  6  2  0
 14  8  1  0
  1 26  1  0
  1 27  1  0
  1 28  1  0
  2 29  1  0
  2 30  1  0
  4 31  1  0
  9 32  1  0
 10 33  1  0
 11 34  1  0
 13 35  1  0
 18 36  1  0
 19 37  1  0
 20 38  1  0
 22 39  1  0
 22 40  1  0
 23 41  1  0
 24 42  1  0
 24 43  1  0
 24 44  1  0
 25 45  1  0
 25 46  1  0
 25 47  1  0
M  END
>  <meeko>  (6) 
{"is_sidechain": [false], "free_energy": -9.283, "intermolecular_energy": -12.607, "internal_energy": 0.598}

$$$$
cand_049_out
     RDKit          3D

 47 49  0  0  0  0  0  0  0  0999 V2000
   51.5520  152.3260   27.6950 C   0  0  0  0  0  0  0  0  0  0  0  0
   52.2450  153.1880   28.7420 C   0  0  0  0  0  0  0  0  0  0  0  0
   52.3100  154.6400   28.3220 C   0  0  0  0  0  0  0  0  0  0  0  0
   51.6600  155.5900   29.1370 C   0  0  0  0  0  0  0  0  0  0  0  0
   51.6990  156.9630   28.8530 C   0  0  0  0  0  0  0  0  0  0  0  0
   50.9760  157.9160   29.7230 C   0  0  0  0  0  0  0  0  0  0  0  0
   51.7570  159.0040   30.0980 O   0  0  0  0  0  0  0  0  0  0  0  0
   51.2090  159.9660   30.9060 C   0  0  0  0  0  0  0  0  0  0  0  0
   52.0330  161.0330   31.2680 C   0  0  0  0  0  0  0  0  0  0  0  0
   51.5370  162.0490   32.0890 C   0  0  0  0  0  0  0  0  0  0  0  0
   50.2180  161.9980   32.5450 C   0  0  0  0  0  0  0  0  0  0  0  0
   49.3980  160.9330   32.1820 C   0  0  0  0  0  0  0  0  0  0  0  0
   48.1180  160.9470   32.6630 O   0  0  0  0  0  0  0  0  0  0  0  0
   49.8950  159.9170   31.3620 C   0  0  0  0  0  0  0  0  0  0  0  0
   49.0680  158.7790   30.9560 C   0  0  0  0  0  0  0  0  0  0  0  0
   47.8960  158.6680   31.3110 O   0  0  0  0  0  0  0  0  0  0  0  0
   49.6920  157.7520   30.0910 C   0  0  0  0  0  0  0  0  0  0  0  0
   48.8960  156.6890   29.7030 O   0  0  0  0  0  0  0  0  0  0  0  0
   52.3980  157.3840   27.7200 C   0  0  0  0  0  0  0  0  0  0  0  0
   53.0520  156.4580   26.9040 C   0  0  0  0  0  0  0  0  0  0  0  0
   53.0190  155.0830   27.1880 C   0  0  0  0  0  0  0  0  0  0  0  0
   53.7440  154.1390   26.2490 C   0  0  0  0  0  0  0  0  0  0  0  0
   53.7380  154.5950   24.7760 C   0  0  0  0  0  0  0  0  0  0  0  0
   54.9070  155.5280   24.4510 C   0  0  0  0  0  0  0  0  0  0  0  0
   53.7880  153.3710   23.8570 C   0  0  0  0  0  0  0  0  0  0  0  0
   50.9384  151.5628   28.1961 H   0  0  0  0  0  0  0  0  0  0  0  0
   50.9085  152.9591   27.0664 H   0  0  0  0  0  0  0  0  0  0  0  0
   52.3085  151.8336   27.0664 H   0  0  0  0  0  0  0  0  0  0  0  0
   51.6881  153.1157   29.6878 H   0  0  0  0  0  0  0  0  0  0  0  0
   53.2749  152.8201   28.8600 H   0  0  0  0  0  0  0  0  0  0  0  0
   51.1058  155.2438   30.0219 H   0  0  0  0  0  0  0  0  0  0  0  0
   53.0714  161.0739   30.9074 H   0  0  0  0  0  0  0  0  0  0  0  0
   52.1858  162.8895   32.3763 H   0  0  0  0  0  0  0  0  0  0  0  0
   49.8273  162.7985   33.1904 H   0  0  0  0  0  0  0  0  0  0  0  0
   47.8720  161.5640   33.3240 H   0  0  0  0  0  0  0  0  0  0  0  0
   48.7200  156.5430   28.7940 H   0  0  0  0  0  0  0  0  0  0  0  0
   52.4340  158.4541   27.4678 H   0  0  0  0  0  0  0  0  0  0  0  0
   53.6040  156.8129   26.0212 H   0  0  0  0  0  0  0  0  0  0  0  0
   54.7893  154.0553   26.5812 H   0  0  0  0  0  0  0  0  0  0  0  0
   53.2099  153.1781   26.2876 H   0  0  0  0  0  0  0  0  0  0  0  0
   52.8082  155.1589   24.6101 H   0  0  0  0  0  0  0  0  0  0  0  0
   55.3592  155.8889   25.3866 H   0  0  0  0  0  0  0  0  0  0  0  0
   55.6613  154.9808   23.8664 H   0  0  0  0  0  0  0  0  0  0  0  0
   54.5407  156.3848   23.8664 H   0  0  0  0  0  0  0  0  0  0  0  0
   53.8254  152.4561   24.4666 H   0  0  0  0  0  0  0  0  0  0  0  0
   52.8899  153.3522   23.2222 H   0  0  0  0  0  0  0  0  0  0  0  0
   54.6847  153.4255   23.2222 H   0  0  0  0  0  0  0  0  0  0  0  0
  1  2  1  0
  2  3  1  0
  3  4  2  0
  4  5  1  0
  5  6  1  0
  6  7  1  0
  7  8  1  0
  8  9  2  0
  9 10  1  0
 10 11  2  0
 11 12  1  0
 12 13  1  0
 12 14  2  0
 14 15  1  0
 15 16  2  0
 15 17  1  0
 17 18  1  0
  5 19  2  0
 19 20  1  0
 20 21  2  0
 21 22  1  0
 22 23  1  0
 23 24  1  0
 23 25  1  0
 21  3  1  0
 17  6  2  0
 14  8  1  0
  1 26  1  0
  1 27  1  0
  1 28  1  0
  2 29  1  0
  2 30  1  0
  4 31  1  0
  9 32  1  0
 10 33  1  0
 11 34  1  0
 13 35  1  0
 18 36  1  0
 19 37  1  0
 20 38  1  0
 22 39  1  0
 22 40  1  0
 23 41  1  0
 24 42  1  0
 24 43  1  0
 24 44  1  0
 25 45  1  0
 25 46  1  0
 25 47  1  0
M  END
>  <meeko>  (7) 
{"is_sidechain": [false], "free_energy": -8.898, "intermolecular_energy": -11.533, "internal_energy": 0.021}

$$$$
cand_049_out
     RDKit          3D

 47 49  0  0  0  0  0  0  0  0999 V2000
   51.5560  160.3080   31.4210 C   0  0  0  0  0  0  0  0  0  0  0  0
   51.9830  159.7510   30.0700 C   0  0  0  0  0  0  0  0  0  0  0  0
   51.3190  158.4240   29.7730 C   0  0  0  0  0  0  0  0  0  0  0  0
   51.9790  157.5400   28.8950 C   0  0  0  0  0  0  0  0  0  0  0  0
   51.4630  156.2720   28.5910 C   0  0  0  0  0  0  0  0  0  0  0  0
   52.1790  155.3930   27.6400 C   0  0  0  0  0  0  0  0  0  0  0  0
   51.8020  154.0600   27.7490 O   0  0  0  0  0  0  0  0  0  0  0  0
   52.3890  153.1350   26.9240 C   0  0  0  0  0  0  0  0  0  0  0  0
   51.9910  151.8070   27.0770 C   0  0  0  0  0  0  0  0  0  0  0  0
   52.5490  150.8140   26.2680 C   0  0  0  0  0  0  0  0  0  0  0  0
   53.5030  151.1510   25.3060 C   0  0  0  0  0  0  0  0  0  0  0  0
   53.8990  152.4770   25.1550 C   0  0  0  0  0  0  0  0  0  0  0  0
   54.8370  152.7370   24.1940 O   0  0  0  0  0  0  0  0  0  0  0  0
   53.3410  153.4690   25.9660 C   0  0  0  0  0  0  0  0  0  0  0  0
   53.7290  154.8760   25.8410 C   0  0  0  0  0  0  0  0  0  0  0  0
   54.5560  155.2510   25.0130 O   0  0  0  0  0  0  0  0  0  0  0  0
   53.0830  155.8480   26.7530 C   0  0  0  0  0  0  0  0  0  0  0  0
   53.4470  157.1750   26.6160 O   0  0  0  0  0  0  0  0  0  0  0  0
   50.2530  155.8920   29.1760 C   0  0  0  0  0  0  0  0  0  0  0  0
   49.5880  156.7520   30.0530 C   0  0  0  0  0  0  0  0  0  0  0  0
   50.1040  158.0220   30.3630 C   0  0  0  0  0  0  0  0  0  0  0  0
   49.3180  158.9030   31.3140 C   0  0  0  0  0  0  0  0  0  0  0  0
   48.0560  159.5300   30.6880 C   0  0  0  0  0  0  0  0  0  0  0  0
   46.9300  159.7100   31.7090 C   0  0  0  0  0  0  0  0  0  0  0  0
   48.4070  160.8850   30.0670 C   0  0  0  0  0  0  0  0  0  0  0  0
   52.0131  159.7118   32.2245 H   0  0  0  0  0  0  0  0  0  0  0  0
   51.8860  161.3538   31.5073 H   0  0  0  0  0  0  0  0  0  0  0  0
   50.4604  160.2609   31.5073 H   0  0  0  0  0  0  0  0  0  0  0  0
   51.7071  160.4706   29.2851 H   0  0  0  0  0  0  0  0  0  0  0  0
   53.0709  159.5905   30.0951 H   0  0  0  0  0  0  0  0  0  0  0  0
   52.9272  157.8544   28.4346 H   0  0  0  0  0  0  0  0  0  0  0  0
   51.2383  151.5417   27.8341 H   0  0  0  0  0  0  0  0  0  0  0  0
   52.2366  149.7663   26.3890 H   0  0  0  0  0  0  0  0  0  0  0  0
   53.9413  150.3695   24.6680 H   0  0  0  0  0  0  0  0  0  0  0  0
   55.7470  152.6120   24.3810 H   0  0  0  0  0  0  0  0  0  0  0  0
   52.7880  157.8410   26.5920 H   0  0  0  0  0  0  0  0  0  0  0  0
   49.8203  154.9076   28.9442 H   0  0  0  0  0  0  0  0  0  0  0  0
   48.6412  156.4287   30.5103 H   0  0  0  0  0  0  0  0  0  0  0  0
   49.0103  158.2933   32.1763 H   0  0  0  0  0  0  0  0  0  0  0  0
   49.9795  159.7345   31.5985 H   0  0  0  0  0  0  0  0  0  0  0  0
   47.6938  158.8383   29.9131 H   0  0  0  0  0  0  0  0  0  0  0  0
   47.3434  159.6439   32.7262 H   0  0  0  0  0  0  0  0  0  0  0  0
   46.4605  160.6946   31.5673 H   0  0  0  0  0  0  0  0  0  0  0  0
   46.1769  158.9209   31.5673 H   0  0  0  0  0  0  0  0  0  0  0  0
   48.5965  161.6166   30.8663 H   0  0  0  0  0  0  0  0  0  0  0  0
   49.3078  160.7807   29.4443 H   0  0  0  0  0  0  0  0  0  0  0  0
   47.5689  161.2311   29.4443 H   0  0  0  0  0  0  0  0  0  0  0  0
  1  2  1  0
  2  3  1  0
  3  4  2  0
  4  5  1  0
  5  6  1  0
  6  7  1  0
  7  8  1  0
  8  9  2  0
  9 10  1  0
 10 11  2  0
 11 12  1  0
 12 13  1  0
 12 14  2  0
 14 15  1  0
 15 16  2  0
 15 17  1  0
 17 18  1  0
  5 19  2  0
 19 20  1  0
 20 21  2  0
 21 22  1  0
 22 23  1  0
 23 24  1  0
 23 25  1  0
 21  3  1  0
 17  6  2  0
 14  8  1  0
  1 26  1  0
  1 27  1  0
  1 28  1  0
  2 29  1  0
  2 30  1  0
  4 31  1  0
  9 32  1  0
 10 33  1  0
 11 34  1  0
 13 35  1  0
 18 36  1  0
 19 37  1  0
 20 38  1  0
 22 39  1  0
 22 40  1  0
 23 41  1  0
 24 42  1  0
 24 43  1  0
 24 44  1  0
 25 45  1  0
 25 46  1  0
 25 47  1  0
M  END
>  <meeko>  (8) 
{"is_sidechain": [false], "free_energy": -8.65, "intermolecular_energy": -11.989, "internal_energy": 0.799}

$$$$
cand_049_out
     RDKit          3D

 47 49  0  0  0  0  0  0  0  0999 V2000
   48.1090  157.7380   29.6270 C   0  0  0  0  0  0  0  0  0  0  0  0
   49.1230  156.7240   30.1400 C   0  0  0  0  0  0  0  0  0  0  0  0
   50.5050  156.9770   29.5800 C   0  0  0  0  0  0  0  0  0  0  0  0
   51.0110  156.0560   28.6390 C   0  0  0  0  0  0  0  0  0  0  0  0
   52.2640  156.2270   28.0330 C   0  0  0  0  0  0  0  0  0  0  0  0
   52.7630  155.2170   27.0740 C   0  0  0  0  0  0  0  0  0  0  0  0
   52.3340  153.9290   27.3740 O   0  0  0  0  0  0  0  0  0  0  0  0
   52.7240  152.8940   26.5650 C   0  0  0  0  0  0  0  0  0  0  0  0
   52.2820  151.6170   26.9110 C   0  0  0  0  0  0  0  0  0  0  0  0
   52.6410  150.5180   26.1280 C   0  0  0  0  0  0  0  0  0  0  0  0
   53.4420  150.6970   24.9980 C   0  0  0  0  0  0  0  0  0  0  0  0
   53.8810  151.9720   24.6530 C   0  0  0  0  0  0  0  0  0  0  0  0
   54.6610  152.0760   23.5350 O   0  0  0  0  0  0  0  0  0  0  0  0
   53.5220  153.0710   25.4380 C   0  0  0  0  0  0  0  0  0  0  0  0
   53.9630  154.4290   25.1120 C   0  0  0  0  0  0  0  0  0  0  0  0
   54.6620  154.6670   24.1300 O   0  0  0  0  0  0  0  0  0  0  0  0
   53.5320  155.5230   26.0130 C   0  0  0  0  0  0  0  0  0  0  0  0
   53.9440  156.8030   25.6870 O   0  0  0  0  0  0  0  0  0  0  0  0
   53.0250  157.3420   28.3900 C   0  0  0  0  0  0  0  0  0  0  0  0
   52.5380  158.2680   29.3160 C   0  0  0  0  0  0  0  0  0  0  0  0
   51.2810  158.1020   29.9220 C   0  0  0  0  0  0  0  0  0  0  0  0
   50.8260  159.1420   30.9250 C   0  0  0  0  0  0  0  0  0  0  0  0
   50.7170  160.5670   30.3440 C   0  0  0  0  0  0  0  0  0  0  0  0
   49.2970  161.1280   30.4430 C   0  0  0  0  0  0  0  0  0  0  0  0
   51.6880  161.4980   31.0760 C   0  0  0  0  0  0  0  0  0  0  0  0
   47.6179  158.2291   30.4800 H   0  0  0  0  0  0  0  0  0  0  0  0
   48.6235  158.4937   29.0153 H   0  0  0  0  0  0  0  0  0  0  0  0
   47.3533  157.2235   29.0153 H   0  0  0  0  0  0  0  0  0  0  0  0
   49.1665  156.7882   31.2373 H   0  0  0  0  0  0  0  0  0  0  0  0
   48.8005  155.7241   29.8142 H   0  0  0  0  0  0  0  0  0  0  0  0
   50.4048  155.1776   28.3727 H   0  0  0  0  0  0  0  0  0  0  0  0
   51.6507  151.4758   27.8006 H   0  0  0  0  0  0  0  0  0  0  0  0
   52.2928  149.5110   26.4013 H   0  0  0  0  0  0  0  0  0  0  0  0
   53.7256  149.8314   24.3814 H   0  0  0  0  0  0  0  0  0  0  0  0
   54.3100  151.8470   22.6960 H   0  0  0  0  0  0  0  0  0  0  0  0
   54.8540  156.9820   25.5500 H   0  0  0  0  0  0  0  0  0  0  0  0
   54.0166  157.4926   27.9382 H   0  0  0  0  0  0  0  0  0  0  0  0
   53.1504  159.1440   29.5757 H   0  0  0  0  0  0  0  0  0  0  0  0
   49.8370  158.8467   31.3053 H   0  0  0  0  0  0  0  0  0  0  0  0
   51.5898  159.1778   31.7158 H   0  0  0  0  0  0  0  0  0  0  0  0
   50.9764  160.5079   29.2767 H   0  0  0  0  0  0  0  0  0  0  0  0
   49.0191  161.2378   31.5016 H   0  0  0  0  0  0  0  0  0  0  0  0
   49.2555  162.1101   29.9493 H   0  0  0  0  0  0  0  0  0  0  0  0
   48.5955  160.4395   29.9493 H   0  0  0  0  0  0  0  0  0  0  0  0
   51.5627  161.3778   32.1622 H   0  0  0  0  0  0  0  0  0  0  0  0
   52.7210  161.2441   30.7958 H   0  0  0  0  0  0  0  0  0  0  0  0
   51.4778  162.5407   30.7958 H   0  0  0  0  0  0  0  0  0  0  0  0
  1  2  1  0
  2  3  1  0
  3  4  2  0
  4  5  1  0
  5  6  1  0
  6  7  1  0
  7  8  1  0
  8  9  2  0
  9 10  1  0
 10 11  2  0
 11 12  1  0
 12 13  1  0
 12 14  2  0
 14 15  1  0
 15 16  2  0
 15 17  1  0
 17 18  1  0
  5 19  2  0
 19 20  1  0
 20 21  2  0
 21 22  1  0
 22 23  1  0
 23 24  1  0
 23 25  1  0
 21  3  1  0
 17  6  2  0
 14  8  1  0
  1 26  1  0
  1 27  1  0
  1 28  1  0
  2 29  1  0
  2 30  1  0
  4 31  1  0
  9 32  1  0
 10 33  1  0
 11 34  1  0
 13 35  1  0
 18 36  1  0
 19 37  1  0
 20 38  1  0
 22 39  1  0
 22 40  1  0
 23 41  1  0
 24 42  1  0
 24 43  1  0
 24 44  1  0
 25 45  1  0
 25 46  1  0
 25 47  1  0
M  END
>  <meeko>  (9) 
{"is_sidechain": [false], "free_energy": -8.621, "intermolecular_energy": -10.759, "internal_energy": -0.395}

$$$$
