cand_034_out
     RDKit          3D

 40 42  0  0  0  0  0  0  0  0999 V2000
   48.1230  161.3130   31.2000 C   0  0  0  0  0  0  0  0  0  0  0  0
   49.3520  160.7450   31.7620 N   0  0  0  0  0  0  0  0  0  0  0  0
   49.2390  160.3880   33.1840 C   0  0  0  0  0  0  0  0  0  0  0  0
   49.9040  159.6780   31.0200 C   0  0  0  0  0  0  0  0  0  0  0  0
   49.1930  158.4930   30.7710 C   0  0  0  0  0  0  0  0  0  0  0  0
   49.7680  157.4390   30.0510 C   0  0  0  0  0  0  0  0  0  0  0  0
   51.0700  157.5360   29.5570 C   0  0  0  0  0  0  0  0  0  0  0  0
   51.7130  156.4250   28.8220 C   0  0  0  0  0  0  0  0  0  0  0  0
   52.2720  156.8270   27.6150 O   0  0  0  0  0  0  0  0  0  0  0  0
   52.8970  155.8930   26.8290 C   0  0  0  0  0  0  0  0  0  0  0  0
   53.4520  156.3450   25.6300 C   0  0  0  0  0  0  0  0  0  0  0  0
   54.1020  155.4450   24.7820 C   0  0  0  0  0  0  0  0  0  0  0  0
   54.1960  154.0970   25.1310 C   0  0  0  0  0  0  0  0  0  0  0  0
   53.6400  153.6490   26.3270 C   0  0  0  0  0  0  0  0  0  0  0  0
   53.7680  152.3160   26.6080 O   0  0  0  0  0  0  0  0  0  0  0  0
   52.9900  154.5500   27.1760 C   0  0  0  0  0  0  0  0  0  0  0  0
   52.3920  154.1220   28.4410 C   0  0  0  0  0  0  0  0  0  0  0  0
   52.4270  152.9520   28.8150 O   0  0  0  0  0  0  0  0  0  0  0  0
   51.7300  155.1550   29.2700 C   0  0  0  0  0  0  0  0  0  0  0  0
   51.1540  154.7370   30.4560 O   0  0  0  0  0  0  0  0  0  0  0  0
   51.7900  158.7110   29.8150 C   0  0  0  0  0  0  0  0  0  0  0  0
   51.2190  159.7830   30.5290 C   0  0  0  0  0  0  0  0  0  0  0  0
   52.0410  161.0220   30.7780 C   0  0  0  0  0  0  0  0  0  0  0  0
   53.2520  160.9870   30.1430 F   0  0  0  0  0  0  0  0  0  0  0  0
   52.3380  161.1940   32.0980 F   0  0  0  0  0  0  0  0  0  0  0  0
   47.4547  161.6219   32.0173 H   0  0  0  0  0  0  0  0  0  0  0  0
   48.3728  162.1870   30.5805 H   0  0  0  0  0  0  0  0  0  0  0  0
   47.6192  160.5564   30.5805 H   0  0  0  0  0  0  0  0  0  0  0  0
   49.5135  161.2551   33.8027 H   0  0  0  0  0  0  0  0  0  0  0  0
   48.2032  160.0920   33.4065 H   0  0  0  0  0  0  0  0  0  0  0  0
   49.9158  159.5499   33.4065 H   0  0  0  0  0  0  0  0  0  0  0  0
   48.1649  158.3909   31.1487 H   0  0  0  0  0  0  0  0  0  0  0  0
   49.1863  156.5226   29.8723 H   0  0  0  0  0  0  0  0  0  0  0  0
   53.3776  157.4072   25.3539 H   0  0  0  0  0  0  0  0  0  0  0  0
   54.5405  155.7995   23.8375 H   0  0  0  0  0  0  0  0  0  0  0  0
   54.7084  153.3894   24.4626 H   0  0  0  0  0  0  0  0  0  0  0  0
   54.5080  151.8390   26.2890 H   0  0  0  0  0  0  0  0  0  0  0  0
   51.4910  153.9840   30.8990 H   0  0  0  0  0  0  0  0  0  0  0  0
   52.8246  158.7979   29.4516 H   0  0  0  0  0  0  0  0  0  0  0  0
   51.4101  161.8378   30.3953 H   0  0  0  0  0  0  0  0  0  0  0  0
  1  2  1  0
  2  3  1  0
  2  4  1  0
  4  5  2  0
  5  6  1  0
  6  7  2  0
  7  8  1  0
  8  9  1  0
  9 10  1  0
 10 11  2  0
 11 12  1  0
 12 13  2  0
 13 14  1  0
 14 15  1  0
 14 16  2  0
 16 17  1  0
 17 18  2  0
 17 19  1  0
 19 20  1  0
  7 21  1  0
 21 22  2  0
 22 23  1  0
 23 24  1  0
 23 25  1  0
 22  4  1  0
 19  8  2  0
 16 10  1  0
  1 26  1  0
  1 27  1  0
  1 28  1  0
  3 29  1  0
  3 30  1  0
  3 31  1  0
  5 32  1  0
  6 33  1  0
 11 34  1  0
 12 35  1  0
 13 36  1  0
 15 37  1  0
 20 38  1  0
 21 39  1  0
 23 40  1  0
M  END
>  <meeko>  (1) 
{"is_sidechain": [false], "free_energy": -10.333, "intermolecular_energy": -12.749, "internal_energy": -0.37}

$$$$
cand_034_out
     RDKit          3D

 40 42  0  0  0  0  0  0  0  0999 V2000
   54.3460  152.5180   26.2990 C   0  0  0  0  0  0  0  0  0  0  0  0
   52.9210  152.8630   26.3100 N   0  0  0  0  0  0  0  0  0  0  0  0
   52.0430  151.7280   26.6320 C   0  0  0  0  0  0  0  0  0  0  0  0
   52.5920  153.9900   27.0940 C   0  0  0  0  0  0  0  0  0  0  0  0
   52.0590  153.8730   28.3870 C   0  0  0  0  0  0  0  0  0  0  0  0
   51.7190  155.0040   29.1380 C   0  0  0  0  0  0  0  0  0  0  0  0
   51.9020  156.2890   28.6210 C   0  0  0  0  0  0  0  0  0  0  0  0
   51.5200  157.4990   29.3800 C   0  0  0  0  0  0  0  0  0  0  0  0
   50.1890  157.4890   29.7790 O   0  0  0  0  0  0  0  0  0  0  0  0
   49.7010  158.5570   30.4880 C   0  0  0  0  0  0  0  0  0  0  0  0
   48.3610  158.4990   30.8760 C   0  0  0  0  0  0  0  0  0  0  0  0
   47.8000  159.5530   31.6000 C   0  0  0  0  0  0  0  0  0  0  0  0
   48.5780  160.6640   31.9350 C   0  0  0  0  0  0  0  0  0  0  0  0
   49.9140  160.7190   31.5470 C   0  0  0  0  0  0  0  0  0  0  0  0
   50.6170  161.8350   31.9070 O   0  0  0  0  0  0  0  0  0  0  0  0
   50.4750  159.6630   30.8220 C   0  0  0  0  0  0  0  0  0  0  0  0
   51.8730  159.6800   30.3930 C   0  0  0  0  0  0  0  0  0  0  0  0
   52.6200  160.6240   30.6430 O   0  0  0  0  0  0  0  0  0  0  0  0
   52.3720  158.5110   29.6340 C   0  0  0  0  0  0  0  0  0  0  0  0
   53.6910  158.5450   29.2190 O   0  0  0  0  0  0  0  0  0  0  0  0
   52.4200  156.4110   27.3240 C   0  0  0  0  0  0  0  0  0  0  0  0
   52.7760  155.2800   26.5620 C   0  0  0  0  0  0  0  0  0  0  0  0
   53.3280  155.4740   25.1740 C   0  0  0  0  0  0  0  0  0  0  0  0
   54.6960  155.4370   25.1400 F   0  0  0  0  0  0  0  0  0  0  0  0
   52.9930  156.6860   24.6430 F   0  0  0  0  0  0  0  0  0  0  0  0
   54.7099  152.4299   27.3333 H   0  0  0  0  0  0  0  0  0  0  0  0
   54.4872  151.5597   25.7777 H   0  0  0  0  0  0  0  0  0  0  0  0
   54.9099  153.3056   25.7777 H   0  0  0  0  0  0  0  0  0  0  0  0
   51.9630  151.6246   27.7242 H   0  0  0  0  0  0  0  0  0  0  0  0
   51.0442  151.9047   26.2063 H   0  0  0  0  0  0  0  0  0  0  0  0
   52.4650  150.8057   26.2063 H   0  0  0  0  0  0  0  0  0  0  0  0
   51.9055  152.8729   28.8186 H   0  0  0  0  0  0  0  0  0  0  0  0
   51.3023  154.8796   30.1484 H   0  0  0  0  0  0  0  0  0  0  0  0
   47.7483  157.6245   30.6118 H   0  0  0  0  0  0  0  0  0  0  0  0
   46.7446  159.5085   31.9068 H   0  0  0  0  0  0  0  0  0  0  0  0
   48.1355  161.4944   32.5047 H   0  0  0  0  0  0  0  0  0  0  0  0
   50.8750  162.4580   31.2560 H   0  0  0  0  0  0  0  0  0  0  0  0
   54.3310  158.0160   29.6520 H   0  0  0  0  0  0  0  0  0  0  0  0
   52.5517  157.4134   26.8907 H   0  0  0  0  0  0  0  0  0  0  0  0
   52.8893  154.6450   24.5992 H   0  0  0  0  0  0  0  0  0  0  0  0
  1  2  1  0
  2  3  1  0
  2  4  1  0
  4  5  2  0
  5  6  1  0
  6  7  2  0
  7  8  1  0
  8  9  1  0
  9 10  1  0
 10 11  2  0
 11 12  1  0
 12 13  2  0
 13 14  1  0
 14 15  1  0
 14 16  2  0
 16 17  1  0
 17 18  2  0
 17 19  1  0
 19 20  1  0
  7 21  1  0
 21 22  2  0
 22 23  1  0
 23 24  1  0
 23 25  1  0
 22  4  1  0
 19  8  2  0
 16 10  1  0
  1 26  1  0
  1 27  1  0
  1 28  1  0
  3 29  1  0
  3 30  1  0
  3 31  1  0
  5 32  1  0
  6 33  1  0
 11 34  1  0
 12 35  1  0
 13 36  1  0
 15 37  1  0
 20 38  1  0
 21 39  1  0
 23 40  1  0
M  END
>  <meeko>  (2) 
{"is_sidechain": [false], "free_energy": -9.838, "intermolecular_energy": -12.303, "internal_energy": -0.206}

$$$$
cand_034_out
     RDKit          3D

 40 42  0  0  0  0  0  0  0  0999 V2000
   51.5780  160.9830   31.7380 C   0  0  0  0  0  0  0  0  0  0  0  0
   50.5230  160.2880   30.9930 N   0  0  0  0  0  0  0  0  0  0  0  0
   49.7740  161.1630   30.0790 C   0  0  0  0  0  0  0  0  0  0  0  0
   50.9430  159.1130   30.3310 C   0  0  0  0  0  0  0  0  0  0  0  0
   52.2090  159.0000   29.7380 C   0  0  0  0  0  0  0  0  0  0  0  0
   52.5960  157.8330   29.0680 C   0  0  0  0  0  0  0  0  0  0  0  0
   51.7290  156.7430   28.9700 C   0  0  0  0  0  0  0  0  0  0  0  0
   52.1000  155.5120   28.2400 C   0  0  0  0  0  0  0  0  0  0  0  0
   52.6160  155.7690   26.9740 O   0  0  0  0  0  0  0  0  0  0  0  0
   52.9960  154.7130   26.1860 C   0  0  0  0  0  0  0  0  0  0  0  0
   53.5170  155.0190   24.9270 C   0  0  0  0  0  0  0  0  0  0  0  0
   53.9230  153.9920   24.0740 C   0  0  0  0  0  0  0  0  0  0  0  0
   53.8080  152.6600   24.4770 C   0  0  0  0  0  0  0  0  0  0  0  0
   53.2870  152.3570   25.7320 C   0  0  0  0  0  0  0  0  0  0  0  0
   53.2010  151.0330   26.0640 O   0  0  0  0  0  0  0  0  0  0  0  0
   52.8810  153.3870   26.5870 C   0  0  0  0  0  0  0  0  0  0  0  0
   52.3280  153.1140   27.9140 C   0  0  0  0  0  0  0  0  0  0  0  0
   52.1880  151.9680   28.3380 O   0  0  0  0  0  0  0  0  0  0  0  0
   51.9320  154.2750   28.7440 C   0  0  0  0  0  0  0  0  0  0  0  0
   51.3950  154.0040   29.9890 O   0  0  0  0  0  0  0  0  0  0  0  0
   50.4570  156.8560   29.5480 C   0  0  0  0  0  0  0  0  0  0  0  0
   50.0600  158.0210   30.2350 C   0  0  0  0  0  0  0  0  0  0  0  0
   48.6790  158.0850   30.8360 C   0  0  0  0  0  0  0  0  0  0  0  0
   47.8050  158.8110   30.0730 F   0  0  0  0  0  0  0  0  0  0  0  0
   48.6710  158.6910   32.0580 F   0  0  0  0  0  0  0  0  0  0  0  0
   51.4018  160.8669   32.8176 H   0  0  0  0  0  0  0  0  0  0  0  0
   52.5558  160.5516   31.4776 H   0  0  0  0  0  0  0  0  0  0  0  0
   51.5676  162.0517   31.4776 H   0  0  0  0  0  0  0  0  0  0  0  0
   49.1680  161.8709   30.6635 H   0  0  0  0  0  0  0  0  0  0  0  0
   50.4791  161.7204   29.4449 H   0  0  0  0  0  0  0  0  0  0  0  0
   49.1145  160.5523   29.4449 H   0  0  0  0  0  0  0  0  0  0  0  0
   52.9113  159.8443   29.8005 H   0  0  0  0  0  0  0  0  0  0  0  0
   53.5958  157.7742   28.6131 H   0  0  0  0  0  0  0  0  0  0  0  0
   53.6072  156.0679   24.6082 H   0  0  0  0  0  0  0  0  0  0  0  0
   54.3343  154.2321   23.0825 H   0  0  0  0  0  0  0  0  0  0  0  0
   54.1286  151.8513   23.8038 H   0  0  0  0  0  0  0  0  0  0  0  0
   52.8940  150.7810   26.9130 H   0  0  0  0  0  0  0  0  0  0  0  0
   51.0150  153.1650   30.1620 H   0  0  0  0  0  0  0  0  0  0  0  0
   49.7521  156.0158   29.4635 H   0  0  0  0  0  0  0  0  0  0  0  0
   48.3719  157.0310   30.9042 H   0  0  0  0  0  0  0  0  0  0  0  0
  1  2  1  0
  2  3  1  0
  2  4  1  0
  4  5  2  0
  5  6  1  0
  6  7  2  0
  7  8  1  0
  8  9  1  0
  9 10  1  0
 10 11  2  0
 11 12  1  0
 12 13  2  0
 13 14  1  0
 14 15  1  0
 14 16  2  0
 16 17  1  0
 17 18  2  0
 17 19  1  0
 19 20  1  0
  7 21  1  0
 21 22  2  0
 22 23  1  0
 23 24  1  0
 23 25  1  0
 22  4  1  0
 19  8  2  0
 16 10  1  0
  1 26  1  0
  1 27  1  0
  1 28  1  0
  3 29  1  0
  3 30  1  0
  3 31  1  0
  5 32  1  0
  6 33  1  0
 11 34  1  0
 12 35  1  0
 13 36  1  0
 15 37  1  0
 20 38  1  0
 21 39  1  0
 23 40  1  0
M  END
>  <meeko>  (3) 
{"is_sidechain": [false], "free_energy": -9.761, "intermolecular_energy": -12.619, "internal_energy": 0.206}

$$$$
cand_034_out
     RDKit          3D

 40 42  0  0  0  0  0  0  0  0999 V2000
   54.7470  152.6400   26.4980 C   0  0  0  0  0  0  0  0  0  0  0  0
   53.3290  152.9320   26.2640 N   0  0  0  0  0  0  0  0  0  0  0  0
   52.4660  151.7430   26.3220 C   0  0  0  0  0  0  0  0  0  0  0  0
   52.8020  153.9740   27.0570 C   0  0  0  0  0  0  0  0  0  0  0  0
   52.2240  153.7390   28.3140 C   0  0  0  0  0  0  0  0  0  0  0  0
   51.6870  154.7850   29.0740 C   0  0  0  0  0  0  0  0  0  0  0  0
   51.7110  156.0990   28.6010 C   0  0  0  0  0  0  0  0  0  0  0  0
   51.1210  157.2170   29.3690 C   0  0  0  0  0  0  0  0  0  0  0  0
   52.0270  158.2420   29.6130 O   0  0  0  0  0  0  0  0  0  0  0  0
   51.6120  159.3410   30.3210 C   0  0  0  0  0  0  0  0  0  0  0  0
   52.5530  160.3490   30.5350 C   0  0  0  0  0  0  0  0  0  0  0  0
   52.1960  161.4950   31.2490 C   0  0  0  0  0  0  0  0  0  0  0  0
   50.9000  161.6320   31.7490 C   0  0  0  0  0  0  0  0  0  0  0  0
   49.9630  160.6240   31.5360 C   0  0  0  0  0  0  0  0  0  0  0  0
   48.7120  160.8220   32.0540 O   0  0  0  0  0  0  0  0  0  0  0  0
   50.3210  159.4780   30.8200 C   0  0  0  0  0  0  0  0  0  0  0  0
   49.3690  158.3940   30.5740 C   0  0  0  0  0  0  0  0  0  0  0  0
   48.2120  158.4380   30.9880 O   0  0  0  0  0  0  0  0  0  0  0  0
   49.8460  157.2250   29.8020 C   0  0  0  0  0  0  0  0  0  0  0  0
   48.9420  156.2000   29.5890 O   0  0  0  0  0  0  0  0  0  0  0  0
   52.2730  156.3370   27.3390 C   0  0  0  0  0  0  0  0  0  0  0  0
   52.8260  155.2950   26.5690 C   0  0  0  0  0  0  0  0  0  0  0  0
   53.4160  155.6110   25.2200 C   0  0  0  0  0  0  0  0  0  0  0  0
   54.7850  155.6380   25.2350 F   0  0  0  0  0  0  0  0  0  0  0  0
   53.0440  156.8420   24.7630 F   0  0  0  0  0  0  0  0  0  0  0  0
   54.9395  152.6004   27.5803 H   0  0  0  0  0  0  0  0  0  0  0  0
   55.0014  151.6706   26.0446 H   0  0  0  0  0  0  0  0  0  0  0  0
   55.3637  153.4300   26.0446 H   0  0  0  0  0  0  0  0  0  0  0  0
   52.2748  151.4796   27.3727 H   0  0  0  0  0  0  0  0  0  0  0  0
   51.5119  151.9575   25.8183 H   0  0  0  0  0  0  0  0  0  0  0  0
   52.9656  150.9024   25.8183 H   0  0  0  0  0  0  0  0  0  0  0  0
   52.1922  152.7132   28.7098 H   0  0  0  0  0  0  0  0  0  0  0  0
   51.2406  154.5693   30.0559 H   0  0  0  0  0  0  0  0  0  0  0  0
   53.5747  160.2411   30.1418 H   0  0  0  0  0  0  0  0  0  0  0  0
   52.9369  162.2904   31.4175 H   0  0  0  0  0  0  0  0  0  0  0  0
   50.6191  162.5351   32.3106 H   0  0  0  0  0  0  0  0  0  0  0  0
   48.0430  160.1810   31.9190 H   0  0  0  0  0  0  0  0  0  0  0  0
   48.9550  155.4430   30.1400 H   0  0  0  0  0  0  0  0  0  0  0  0
   52.2824  157.3622   26.9404 H   0  0  0  0  0  0  0  0  0  0  0  0
   53.0368  154.8060   24.5733 H   0  0  0  0  0  0  0  0  0  0  0  0
  1  2  1  0
  2  3  1  0
  2  4  1  0
  4  5  2  0
  5  6  1  0
  6  7  2  0
  7  8  1  0
  8  9  1  0
  9 10  1  0
 10 11  2  0
 11 12  1  0
 12 13  2  0
 13 14  1  0
 14 15  1  0
 14 16  2  0
 16 17  1  0
 17 18  2  0
 17 19  1  0
 19 20  1  0
  7 21  1  0
 21 22  2  0
 22 23  1  0
 23 24  1  0
 23 25  1  0
 22  4  1  0
 19  8  2  0
 16 10  1  0
  1 26  1  0
  1 27  1  0
  1 28  1  0
  3 29  1  0
  3 30  1  0
  3 31  1  0
  5 32  1  0
  6 33  1  0
 11 34  1  0
 12 35  1  0
 13 36  1  0
 15 37  1  0
 20 38  1  0
 21 39  1  0
 23 40  1  0
M  END
>  <meeko>  (4) 
{"is_sidechain": [false], "free_energy": -8.533, "intermolecular_energy": -10.527, "internal_energy": -0.372}

$$$$
cand_034_out
     RDKit          3D

 40 42  0  0  0  0  0  0  0  0999 V2000
   53.7530  153.5410   23.9680 C   0  0  0  0  0  0  0  0  0  0  0  0
   53.6380  153.1970   25.3890 N   0  0  0  0  0  0  0  0  0  0  0  0
   54.8490  152.5760   25.9440 C   0  0  0  0  0  0  0  0  0  0  0  0
   53.1880  154.2490   26.2170 C   0  0  0  0  0  0  0  0  0  0  0  0
   53.4250  155.5980   25.9080 C   0  0  0  0  0  0  0  0  0  0  0  0
   52.9900  156.6240   26.7550 C   0  0  0  0  0  0  0  0  0  0  0  0
   52.3030  156.3350   27.9360 C   0  0  0  0  0  0  0  0  0  0  0  0
   51.8620  157.3980   28.8640 C   0  0  0  0  0  0  0  0  0  0  0  0
   50.5180  157.2920   29.2070 O   0  0  0  0  0  0  0  0  0  0  0  0
   49.9760  158.2190   30.0590 C   0  0  0  0  0  0  0  0  0  0  0  0
   48.6260  158.0680   30.3830 C   0  0  0  0  0  0  0  0  0  0  0  0
   48.0110  158.9780   31.2450 C   0  0  0  0  0  0  0  0  0  0  0  0
   48.7440  160.0380   31.7820 C   0  0  0  0  0  0  0  0  0  0  0  0
   50.0900  160.1870   31.4570 C   0  0  0  0  0  0  0  0  0  0  0  0
   50.7480  161.2480   32.0180 O   0  0  0  0  0  0  0  0  0  0  0  0
   50.7050  159.2750   30.5950 C   0  0  0  0  0  0  0  0  0  0  0  0
   52.1160  159.3950   30.2260 C   0  0  0  0  0  0  0  0  0  0  0  0
   52.8260  160.3040   30.6520 O   0  0  0  0  0  0  0  0  0  0  0  0
   52.6740  158.3750   29.3090 C   0  0  0  0  0  0  0  0  0  0  0  0
   54.0040  158.5070   28.9540 O   0  0  0  0  0  0  0  0  0  0  0  0
   52.0770  154.9890   28.2570 C   0  0  0  0  0  0  0  0  0  0  0  0
   52.5010  153.9470   27.4080 C   0  0  0  0  0  0  0  0  0  0  0  0
   52.2300  152.5190   27.8040 C   0  0  0  0  0  0  0  0  0  0  0  0
   51.5100  151.8360   26.8620 F   0  0  0  0  0  0  0  0  0  0  0  0
   51.4930  152.4260   28.9490 F   0  0  0  0  0  0  0  0  0  0  0  0
   54.1003  154.5800   23.8692 H   0  0  0  0  0  0  0  0  0  0  0  0
   54.4743  152.8657   23.4845 H   0  0  0  0  0  0  0  0  0  0  0  0
   52.7706  153.4353   23.4845 H   0  0  0  0  0  0  0  0  0  0  0  0
   54.8026  152.5998   27.0428 H   0  0  0  0  0  0  0  0  0  0  0  0
   54.9155  151.5325   25.6023 H   0  0  0  0  0  0  0  0  0  0  0  0
   55.7352  153.1309   25.6023 H   0  0  0  0  0  0  0  0  0  0  0  0
   53.9626  155.8534   24.9829 H   0  0  0  0  0  0  0  0  0  0  0  0
   53.1919  157.6715   26.4869 H   0  0  0  0  0  0  0  0  0  0  0  0
   48.0480  157.2333   29.9597 H   0  0  0  0  0  0  0  0  0  0  0  0
   46.9478  158.8597   31.5013 H   0  0  0  0  0  0  0  0  0  0  0  0
   48.2589  160.7547   32.4610 H   0  0  0  0  0  0  0  0  0  0  0  0
   50.2820  161.8570   32.5560 H   0  0  0  0  0  0  0  0  0  0  0  0
   54.5110  157.7470   28.7480 H   0  0  0  0  0  0  0  0  0  0  0  0
   51.5565  154.7404   29.1936 H   0  0  0  0  0  0  0  0  0  0  0  0
   53.2339  152.0879   27.9313 H   0  0  0  0  0  0  0  0  0  0  0  0
  1  2  1  0
  2  3  1  0
  2  4  1  0
  4  5  2  0
  5  6  1  0
  6  7  2  0
  7  8  1  0
  8  9  1  0
  9 10  1  0
 10 11  2  0
 11 12  1  0
 12 13  2  0
 13 14  1  0
 14 15  1  0
 14 16  2  0
 16 17  1  0
 17 18  2  0
 17 19  1  0
 19 20  1  0
  7 21  1  0
 21 22  2  0
 22 23  1  0
 23 24  1  0
 23 25  1  0
 22  4  1  0
 19  8  2  0
 16 10  1  0
  1 26  1  0
  1 27  1  0
  1 28  1  0
  3 29  1  0
  3 30  1  0
  3 31  1  0
  5 32  1  0
  6 33  1  0
 11 34  1  0
 12 35  1  0
 13 36  1  0
 15 37  1  0
 20 38  1  0
 21 39  1  0
 23 40  1  0
M  END
>  <meeko>  (5) 
{"is_sidechain": [false], "free_energy": -8.115, "intermolecular_energy": -10.397, "internal_energy": 0.014}

$$$$
cand_034_out
     RDKit          3D

 40 42  0  0  0  0  0  0  0  0999 V2000
   54.1440  154.0540   24.1990 C   0  0  0  0  0  0  0  0  0  0  0  0
   53.7940  153.5590   25.5340 N   0  0  0  0  0  0  0  0  0  0  0  0
   54.9050  152.8840   26.2210 C   0  0  0  0  0  0  0  0  0  0  0  0
   53.1880  154.5150   26.3790 C   0  0  0  0  0  0  0  0  0  0  0  0
   53.3730  155.8950   26.2010 C   0  0  0  0  0  0  0  0  0  0  0  0
   52.7800  156.8240   27.0640 C   0  0  0  0  0  0  0  0  0  0  0  0
   51.9840  156.4040   28.1310 C   0  0  0  0  0  0  0  0  0  0  0  0
   51.3730  157.3630   29.0770 C   0  0  0  0  0  0  0  0  0  0  0  0
   52.1900  158.4570   29.3380 O   0  0  0  0  0  0  0  0  0  0  0  0
   51.7470  159.4240   30.2050 C   0  0  0  0  0  0  0  0  0  0  0  0
   52.5950  160.5090   30.4300 C   0  0  0  0  0  0  0  0  0  0  0  0
   52.2060  161.5280   31.3010 C   0  0  0  0  0  0  0  0  0  0  0  0
   50.9700  161.4620   31.9480 C   0  0  0  0  0  0  0  0  0  0  0  0
   50.1250  160.3780   31.7220 C   0  0  0  0  0  0  0  0  0  0  0  0
   48.9300  160.3750   32.3880 O   0  0  0  0  0  0  0  0  0  0  0  0
   50.5160  159.3580   30.8490 C   0  0  0  0  0  0  0  0  0  0  0  0
   49.6600  158.2010   30.5840 C   0  0  0  0  0  0  0  0  0  0  0  0
   48.5620  158.0670   31.1190 O   0  0  0  0  0  0  0  0  0  0  0  0
   50.1640  157.1780   29.6400 C   0  0  0  0  0  0  0  0  0  0  0  0
   49.3540  156.0800   29.4090 O   0  0  0  0  0  0  0  0  0  0  0  0
   51.8080  155.0260   28.3220 C   0  0  0  0  0  0  0  0  0  0  0  0
   52.3910  154.0800   27.4550 C   0  0  0  0  0  0  0  0  0  0  0  0
   52.1680  152.6130   27.7100 C   0  0  0  0  0  0  0  0  0  0  0  0
   51.4720  152.0010   26.7020 F   0  0  0  0  0  0  0  0  0  0  0  0
   51.4320  152.3850   28.8370 F   0  0  0  0  0  0  0  0  0  0  0  0
   54.7767  154.9488   24.2940 H   0  0  0  0  0  0  0  0  0  0  0  0
   54.6923  153.2737   23.6507 H   0  0  0  0  0  0  0  0  0  0  0  0
   53.2256  154.3108   23.6507 H   0  0  0  0  0  0  0  0  0  0  0  0
   54.7679  152.9673   27.3092 H   0  0  0  0  0  0  0  0  0  0  0  0
   54.9228  151.8223   25.9339 H   0  0  0  0  0  0  0  0  0  0  0  0
   55.8555  153.3574   25.9339 H   0  0  0  0  0  0  0  0  0  0  0  0
   53.9956  156.2531   25.3678 H   0  0  0  0  0  0  0  0  0  0  0  0
   52.9434  157.8992   26.8992 H   0  0  0  0  0  0  0  0  0  0  0  0
   53.5690  160.5613   29.9215 H   0  0  0  0  0  0  0  0  0  0  0  0
   52.8737  162.3840   31.4780 H   0  0  0  0  0  0  0  0  0  0  0  0
   50.6643  162.2649   32.6350 H   0  0  0  0  0  0  0  0  0  0  0  0
   48.1930  159.9230   32.0260 H   0  0  0  0  0  0  0  0  0  0  0  0
   48.7470  156.0890   28.6960 H   0  0  0  0  0  0  0  0  0  0  0  0
   51.2002  154.6749   29.1690 H   0  0  0  0  0  0  0  0  0  0  0  0
   53.1856  152.2052   27.8005 H   0  0  0  0  0  0  0  0  0  0  0  0
  1  2  1  0
  2  3  1  0
  2  4  1  0
  4  5  2  0
  5  6  1  0
  6  7  2  0
  7  8  1  0
  8  9  1  0
  9 10  1  0
 10 11  2  0
 11 12  1  0
 12 13  2  0
 13 14  1  0
 14 15  1  0
 14 16  2  0
 16 17  1  0
 17 18  2  0
 17 19  1  0
 19 20  1  0
  7 21  1  0
 21 22  2  0
 22 23  1  0
 23 24  1  0
 23 25  1  0
 22  4  1  0
 19  8  2  0
 16 10  1  0
  1 26  1  0
  1 27  1  0
  1 28  1  0
  3 29  1  0
  3 30  1  0
  3 31  1  0
  5 32  1  0
  6 33  1  0
 11 34  1  0
 12 35  1  0
 13 36  1  0
 15 37  1  0
 20 38  1  0
 21 39  1  0
 23 40  1  0
M  END
>  <meeko>  (6) 
{"is_sidechain": [false], "free_energy": -7.392, "intermolecular_energy": -9.747, "internal_energy": 0.256}

$$$$
