cand_013_out
     RDKit          3D

 50 53  0  0  0  0  0  0  0  0999 V2000
   54.2250  149.2570   24.6110 C   0  0  0  0  0  0  0  0  0  0  0  0
   53.9570  150.3020   25.5970 N   0  0  0  0  0  0  0  0  0  0  0  0
   54.6250  151.5660   25.2100 C   0  0  0  0  0  0  0  0  0  0  0  0
   54.3250  152.7210   26.1940 C   0  0  0  0  0  0  0  0  0  0  0  0
   52.8610  152.9230   26.3030 N   0  0  0  0  0  0  0  0  0  0  0  0
   52.5120  154.0430   27.0750 C   0  0  0  0  0  0  0  0  0  0  0  0
   51.9700  153.9200   28.3630 C   0  0  0  0  0  0  0  0  0  0  0  0
   51.6330  155.0460   29.1200 C   0  0  0  0  0  0  0  0  0  0  0  0
   51.8360  156.3330   28.6140 C   0  0  0  0  0  0  0  0  0  0  0  0
   51.4640  157.5400   29.3810 C   0  0  0  0  0  0  0  0  0  0  0  0
   50.1240  157.5540   29.7510 O   0  0  0  0  0  0  0  0  0  0  0  0
   49.6440  158.6210   30.4650 C   0  0  0  0  0  0  0  0  0  0  0  0
   48.2960  158.5870   30.8250 C   0  0  0  0  0  0  0  0  0  0  0  0
   47.7430  159.6440   31.5540 C   0  0  0  0  0  0  0  0  0  0  0  0
   48.5370  160.7320   31.9210 C   0  0  0  0  0  0  0  0  0  0  0  0
   49.8820  160.7620   31.5610 C   0  0  0  0  0  0  0  0  0  0  0  0
   50.6020  161.8580   31.9520 O   0  0  0  0  0  0  0  0  0  0  0  0
   50.4340  159.7050   30.8320 C   0  0  0  0  0  0  0  0  0  0  0  0
   51.8430  159.6990   30.4330 C   0  0  0  0  0  0  0  0  0  0  0  0
   52.6030  160.6220   30.7120 O   0  0  0  0  0  0  0  0  0  0  0  0
   52.3320  158.5290   29.6680 C   0  0  0  0  0  0  0  0  0  0  0  0
   53.6590  158.5390   29.2810 O   0  0  0  0  0  0  0  0  0  0  0  0
   52.3690  156.4590   27.3240 C   0  0  0  0  0  0  0  0  0  0  0  0
   52.7130  155.3300   26.5490 C   0  0  0  0  0  0  0  0  0  0  0  0
   53.2900  155.5180   25.1670 C   0  0  0  0  0  0  0  0  0  0  0  0
   53.0840  156.7800   24.6770 F   0  0  0  0  0  0  0  0  0  0  0  0
   52.7450  154.6890   24.2290 F   0  0  0  0  0  0  0  0  0  0  0  0
   54.6410  155.3380   25.1060 F   0  0  0  0  0  0  0  0  0  0  0  0
   52.1700  151.6770   26.7150 C   0  0  0  0  0  0  0  0  0  0  0  0
   52.5000  150.5400   25.7200 C   0  0  0  0  0  0  0  0  0  0  0  0
   54.4660  148.3171   25.1292 H   0  0  0  0  0  0  0  0  0  0  0  0
   53.3353  149.1106   23.9809 H   0  0  0  0  0  0  0  0  0  0  0  0
   55.0753  149.5568   23.9809 H   0  0  0  0  0  0  0  0  0  0  0  0
   54.3250  149.9880   26.4960 H   0  0  0  0  0  0  0  0  0  0  0  0
   55.7117  151.3972   25.1852 H   0  0  0  0  0  0  0  0  0  0  0  0
   54.2381  151.8594   24.2230 H   0  0  0  0  0  0  0  0  0  0  0  0
   54.7336  152.4718   27.1844 H   0  0  0  0  0  0  0  0  0  0  0  0
   54.7914  153.6448   25.8212 H   0  0  0  0  0  0  0  0  0  0  0  0
   51.8069  152.9177   28.7858 H   0  0  0  0  0  0  0  0  0  0  0  0
   51.2035  154.9177   30.1245 H   0  0  0  0  0  0  0  0  0  0  0  0
   47.6698  157.7301   30.5357 H   0  0  0  0  0  0  0  0  0  0  0  0
   46.6808  159.6183   31.8388 H   0  0  0  0  0  0  0  0  0  0  0  0
   48.1011  161.5640   32.4935 H   0  0  0  0  0  0  0  0  0  0  0  0
   50.5530  162.6520   31.4560 H   0  0  0  0  0  0  0  0  0  0  0  0
   53.9530  159.1470   28.6310 H   0  0  0  0  0  0  0  0  0  0  0  0
   52.5234  157.4639   26.9042 H   0  0  0  0  0  0  0  0  0  0  0  0
   52.5058  151.3894   27.7223 H   0  0  0  0  0  0  0  0  0  0  0  0
   51.0837  151.8497   26.7211 H   0  0  0  0  0  0  0  0  0  0  0  0
   52.0192  149.6144   26.0693 H   0  0  0  0  0  0  0  0  0  0  0  0
   52.1247  150.8408   24.7307 H   0  0  0  0  0  0  0  0  0  0  0  0
  1  2  1  0
  2  3  1  0
  3  4  1  0
  4  5  1  0
  5  6  1  0
  6  7  2  0
  7  8  1  0
  8  9  2  0
  9 10  1  0
 10 11  1  0
 11 12  1  0
 12 13  2  0
 13 14  1  0
 14 15  2  0
 15 16  1  0
 16 17  1  0
 16 18  2  0
 18 19  1  0
 19 20  2  0
 19 21  1  0
 21 22  1  0
  9 23  1  0
 23 24  2  0
 24 25  1  0
 25 26  1  0
 25 27  1  0
 25 28  1  0
  5 29  1  0
 29 30  1  0
 30  2  1  0
 24  6  1  0
 21 10  2  0
 18 12  1  0
  1 31  1  0
  1 32  1  0
  1 33  1  0
  2 34  1  0
  3 35  1  0
  3 36  1  0
  4 37  1  0
  4 38  1  0
  7 39  1  0
  8 40  1  0
 13 41  1  0
 14 42  1  0
 15 43  1  0
 17 44  1  0
 22 45  1  0
 23 46  1  0
 29 47  1  0
 29 48  1  0
 30 49  1  0
 30 50  1  0
M  CHG  1   2   1
M  END
>  <meeko>  (1) 
{"is_sidechain": [false], "free_energy": -11.291, "intermolecular_energy": -13.931, "internal_energy": 0.177}

$$$$
cand_013_out
     RDKit          3D

 50 53  0  0  0  0  0  0  0  0999 V2000
   54.4290  149.4530   24.6080 C   0  0  0  0  0  0  0  0  0  0  0  0
   54.0700  150.4480   25.6150 N   0  0  0  0  0  0  0  0  0  0  0  0
   54.7620  151.7310   25.3470 C   0  0  0  0  0  0  0  0  0  0  0  0
   54.3710  152.8370   26.3550 C   0  0  0  0  0  0  0  0  0  0  0  0
   52.9020  153.0310   26.3450 N   0  0  0  0  0  0  0  0  0  0  0  0
   52.4800  154.1130   27.1360 C   0  0  0  0  0  0  0  0  0  0  0  0
   51.9270  153.9310   28.4120 C   0  0  0  0  0  0  0  0  0  0  0  0
   51.5170  155.0190   29.1880 C   0  0  0  0  0  0  0  0  0  0  0  0
   51.6570  156.3270   28.7130 C   0  0  0  0  0  0  0  0  0  0  0  0
   51.2080  157.4940   29.5000 C   0  0  0  0  0  0  0  0  0  0  0  0
   52.1930  158.4670   29.6330 O   0  0  0  0  0  0  0  0  0  0  0  0
   51.9100  159.6050   30.3450 C   0  0  0  0  0  0  0  0  0  0  0  0
   52.9240  160.5580   30.4420 C   0  0  0  0  0  0  0  0  0  0  0  0
   52.7010  161.7410   31.1540 C   0  0  0  0  0  0  0  0  0  0  0  0
   51.4680  161.9670   31.7660 C   0  0  0  0  0  0  0  0  0  0  0  0
   50.4580  161.0140   31.6670 C   0  0  0  0  0  0  0  0  0  0  0  0
   49.2750  161.2990   32.2910 O   0  0  0  0  0  0  0  0  0  0  0  0
   50.6810  159.8310   30.9550 C   0  0  0  0  0  0  0  0  0  0  0  0
   49.6470  158.8030   30.8280 C   0  0  0  0  0  0  0  0  0  0  0  0
   48.5390  158.9260   31.3430 O   0  0  0  0  0  0  0  0  0  0  0  0
   49.9810  157.5900   30.0470 C   0  0  0  0  0  0  0  0  0  0  0  0
   49.0040  156.6170   29.9460 O   0  0  0  0  0  0  0  0  0  0  0  0
   52.2020  156.5120   27.4350 C   0  0  0  0  0  0  0  0  0  0  0  0
   52.6190  155.4210   26.6420 C   0  0  0  0  0  0  0  0  0  0  0  0
   53.2050  155.6710   25.2740 C   0  0  0  0  0  0  0  0  0  0  0  0
   52.9370  156.9310   24.8080 F   0  0  0  0  0  0  0  0  0  0  0  0
   52.7230  154.8350   24.3090 F   0  0  0  0  0  0  0  0  0  0  0  0
   54.5650  155.5680   25.2320 F   0  0  0  0  0  0  0  0  0  0  0  0
   52.1840  151.7670   26.6350 C   0  0  0  0  0  0  0  0  0  0  0  0
   52.6060  150.6780   25.6210 C   0  0  0  0  0  0  0  0  0  0  0  0
   54.7618  148.5306   25.1063 H   0  0  0  0  0  0  0  0  0  0  0  0
   53.5530  149.2347   23.9796 H   0  0  0  0  0  0  0  0  0  0  0  0
   55.2426  149.8443   23.9796 H   0  0  0  0  0  0  0  0  0  0  0  0
   54.3600  150.0920   26.5260 H   0  0  0  0  0  0  0  0  0  0  0  0
   55.8478  151.5657   25.4084 H   0  0  0  0  0  0  0  0  0  0  0  0
   54.4604  152.0703   24.3450 H   0  0  0  0  0  0  0  0  0  0  0  0
   54.6931  152.5412   27.3643 H   0  0  0  0  0  0  0  0  0  0  0  0
   54.8629  153.7784   26.0691 H   0  0  0  0  0  0  0  0  0  0  0  0
   51.8137  152.9118   28.8100 H   0  0  0  0  0  0  0  0  0  0  0  0
   51.0799  154.8447   30.1822 H   0  0  0  0  0  0  0  0  0  0  0  0
   53.8964  160.3796   29.9598 H   0  0  0  0  0  0  0  0  0  0  0  0
   53.4989  162.4942   31.2315 H   0  0  0  0  0  0  0  0  0  0  0  0
   51.2939  162.8974   32.3264 H   0  0  0  0  0  0  0  0  0  0  0  0
   49.1880  162.0860   32.7930 H   0  0  0  0  0  0  0  0  0  0  0  0
   49.2460  155.7180   29.8440 H   0  0  0  0  0  0  0  0  0  0  0  0
   52.3075  157.5332   27.0399 H   0  0  0  0  0  0  0  0  0  0  0  0
   52.4309  151.4326   27.6534 H   0  0  0  0  0  0  0  0  0  0  0  0
   51.1006  151.9385   26.5527 H   0  0  0  0  0  0  0  0  0  0  0  0
   52.1016  149.7364   25.8836 H   0  0  0  0  0  0  0  0  0  0  0  0
   52.3169  151.0241   24.6177 H   0  0  0  0  0  0  0  0  0  0  0  0
  1  2  1  0
  2  3  1  0
  3  4  1  0
  4  5  1  0
  5  6  1  0
  6  7  2  0
  7  8  1  0
  8  9  2  0
  9 10  1  0
 10 11  1  0
 11 12  1  0
 12 13  2  0
 13 14  1  0
 14 15  2  0
 15 16  1  0
 16 17  1  0
 16 18  2  0
 18 19  1  0
 19 20  2  0
 19 21  1  0
 21 22  1  0
  9 23  1  0
 23 24  2  0
 24 25  1  0
 25 26  1  0
 25 27  1  0
 25 28  1  0
  5 29  1  0
 29 30  1  0
 30  2  1  0
 24  6  1  0
 21 10  2  0
 18 12  1  0
  1 31  1  0
  1 32  1  0
  1 33  1  0
  2 34  1  0
  3 35  1  0
  3 36  1  0
  4 37  1  0
  4 38  1  0
  7 39  1  0
  8 40  1  0
 13 41  1  0
 14 42  1  0
 15 43  1  0
 17 44  1  0
 22 45  1  0
 23 46  1  0
 29 47  1  0
 29 48  1  0
 30 49  1  0
 30 50  1  0
M  CHG  1   2   1
M  END
>  <meeko>  (2) 
{"is_sidechain": [false], "free_energy": -9.28, "intermolecular_energy": -11.277, "internal_energy": 0.004}

$$$$
cand_013_out
     RDKit          3D

 50 53  0  0  0  0  0  0  0  0999 V2000
   54.2270  151.3610   23.8080 C   0  0  0  0  0  0  0  0  0  0  0  0
   53.6260  152.5440   24.4200 N   0  0  0  0  0  0  0  0  0  0  0  0
   52.7940  152.1610   25.5840 C   0  0  0  0  0  0  0  0  0  0  0  0
   52.1800  153.3860   26.3030 C   0  0  0  0  0  0  0  0  0  0  0  0
   53.2560  154.3160   26.7210 N   0  0  0  0  0  0  0  0  0  0  0  0
   52.7900  155.3880   27.5000 C   0  0  0  0  0  0  0  0  0  0  0  0
   52.9050  156.7210   27.0770 C   0  0  0  0  0  0  0  0  0  0  0  0
   52.4310  157.7750   27.8620 C   0  0  0  0  0  0  0  0  0  0  0  0
   51.8180  157.5290   29.0940 C   0  0  0  0  0  0  0  0  0  0  0  0
   51.3320  158.6250   29.9570 C   0  0  0  0  0  0  0  0  0  0  0  0
   49.9960  158.4790   30.3150 O   0  0  0  0  0  0  0  0  0  0  0  0
   49.4150  159.4310   31.1130 C   0  0  0  0  0  0  0  0  0  0  0  0
   48.0770  159.2380   31.4560 C   0  0  0  0  0  0  0  0  0  0  0  0
   47.4250  160.1710   32.2670 C   0  0  0  0  0  0  0  0  0  0  0  0
   48.1100  161.2940   32.7320 C   0  0  0  0  0  0  0  0  0  0  0  0
   49.4460  161.4830   32.3890 C   0  0  0  0  0  0  0  0  0  0  0  0
   50.0570  162.6060   32.8780 O   0  0  0  0  0  0  0  0  0  0  0  0
   50.0980  160.5510   31.5780 C   0  0  0  0  0  0  0  0  0  0  0  0
   51.5010  160.7130   31.1920 C   0  0  0  0  0  0  0  0  0  0  0  0
   52.1690  161.6770   31.5550 O   0  0  0  0  0  0  0  0  0  0  0  0
   52.1010  159.6640   30.3350 C   0  0  0  0  0  0  0  0  0  0  0  0
   53.4210  159.8340   29.9630 O   0  0  0  0  0  0  0  0  0  0  0  0
   51.7090  156.1990   29.5230 C   0  0  0  0  0  0  0  0  0  0  0  0
   52.1840  155.1250   28.7390 C   0  0  0  0  0  0  0  0  0  0  0  0
   52.0380  153.7090   29.2420 C   0  0  0  0  0  0  0  0  0  0  0  0
   51.5370  153.6510   30.5150 F   0  0  0  0  0  0  0  0  0  0  0  0
   53.2180  153.0250   29.3020 F   0  0  0  0  0  0  0  0  0  0  0  0
   51.1850  152.9470   28.4980 F   0  0  0  0  0  0  0  0  0  0  0  0
   54.0900  154.7350   25.5690 C   0  0  0  0  0  0  0  0  0  0  0  0
   54.6770  153.4900   24.8640 C   0  0  0  0  0  0  0  0  0  0  0  0
   54.5745  150.6769   24.5962 H   0  0  0  0  0  0  0  0  0  0  0  0
   53.4787  150.8510   23.1836 H   0  0  0  0  0  0  0  0  0  0  0  0
   55.0802  151.6646   23.1836 H   0  0  0  0  0  0  0  0  0  0  0  0
   53.0390  152.9970   23.7190 H   0  0  0  0  0  0  0  0  0  0  0  0
   51.9779  151.5110   25.2355 H   0  0  0  0  0  0  0  0  0  0  0  0
   53.4448  151.6429   26.3037 H   0  0  0  0  0  0  0  0  0  0  0  0
   51.4944  153.9057   25.6175 H   0  0  0  0  0  0  0  0  0  0  0  0
   51.6289  153.0459   27.1922 H   0  0  0  0  0  0  0  0  0  0  0  0
   53.3777  156.9404   26.1083 H   0  0  0  0  0  0  0  0  0  0  0  0
   52.5414  158.8101   27.5066 H   0  0  0  0  0  0  0  0  0  0  0  0
   47.5360  158.3533   31.0890 H   0  0  0  0  0  0  0  0  0  0  0  0
   46.3700  160.0197   32.5391 H   0  0  0  0  0  0  0  0  0  0  0  0
   47.5954  162.0288   33.3685 H   0  0  0  0  0  0  0  0  0  0  0  0
   49.6550  163.0940   33.5700 H   0  0  0  0  0  0  0  0  0  0  0  0
   53.8300  159.2160   29.3900 H   0  0  0  0  0  0  0  0  0  0  0  0
   51.2413  155.9865   30.4957 H   0  0  0  0  0  0  0  0  0  0  0  0
   53.4706  155.2996   24.8565 H   0  0  0  0  0  0  0  0  0  0  0  0
   54.9134  155.3690   25.9295 H   0  0  0  0  0  0  0  0  0  0  0  0
   55.2502  153.8193   23.9848 H   0  0  0  0  0  0  0  0  0  0  0  0
   55.3166  152.9647   25.5885 H   0  0  0  0  0  0  0  0  0  0  0  0
  1  2  1  0
  2  3  1  0
  3  4  1  0
  4  5  1  0
  5  6  1  0
  6  7  2  0
  7  8  1  0
  8  9  2  0
  9 10  1  0
 10 11  1  0
 11 12  1  0
 12 13  2  0
 13 14  1  0
 14 15  2  0
 15 16  1  0
 16 17  1  0
 16 18  2  0
 18 19  1  0
 19 20  2  0
 19 21  1  0
 21 22  1  0
  9 23  1  0
 23 24  2  0
 24 25  1  0
 25 26  1  0
 25 27  1  0
 25 28  1  0
  5 29  1  0
 29 30  1  0
 30  2  1  0
 24  6  1  0
 21 10  2  0
 18 12  1  0
  1 31  1  0
  1 32  1  0
  1 33  1  0
  2 34  1  0
  3 35  1  0
  3 36  1  0
  4 37  1  0
  4 38  1  0
  7 39  1  0
  8 40  1  0
 13 41  1  0
 14 42  1  0
 15 43  1  0
 17 44  1  0
 22 45  1  0
 23 46  1  0
 29 47  1  0
 29 48  1  0
 30 49  1  0
 30 50  1  0
M  CHG  1   2   1
M  END
>  <meeko>  (3) 
{"is_sidechain": [false], "free_energy": -8.894, "intermolecular_energy": -11.64, "internal_energy": 0.844}

$$$$
cand_013_out
     RDKit          3D

 50 53  0  0  0  0  0  0  0  0999 V2000
   47.6410  162.9160   34.2210 C   0  0  0  0  0  0  0  0  0  0  0  0
   47.9970  161.7550   33.4080 N   0  0  0  0  0  0  0  0  0  0  0  0
   48.2520  162.1620   32.0060 C   0  0  0  0  0  0  0  0  0  0  0  0
   48.6890  160.9750   31.1150 C   0  0  0  0  0  0  0  0  0  0  0  0
   49.8920  160.3280   31.6920 N   0  0  0  0  0  0  0  0  0  0  0  0
   50.4300  159.3260   30.8680 C   0  0  0  0  0  0  0  0  0  0  0  0
   49.7250  158.1510   30.5680 C   0  0  0  0  0  0  0  0  0  0  0  0
   50.2740  157.1660   29.7420 C   0  0  0  0  0  0  0  0  0  0  0  0
   51.5450  157.3290   29.1840 C   0  0  0  0  0  0  0  0  0  0  0  0
   52.1600  156.2920   28.3290 C   0  0  0  0  0  0  0  0  0  0  0  0
   52.7370  156.8150   27.1760 O   0  0  0  0  0  0  0  0  0  0  0  0
   53.3410  155.9600   26.2910 C   0  0  0  0  0  0  0  0  0  0  0  0
   53.9160  156.5290   25.1540 C   0  0  0  0  0  0  0  0  0  0  0  0
   54.5490  155.7140   24.2110 C   0  0  0  0  0  0  0  0  0  0  0  0
   54.6050  154.3330   24.4060 C   0  0  0  0  0  0  0  0  0  0  0  0
   54.0310  153.7680   25.5420 C   0  0  0  0  0  0  0  0  0  0  0  0
   54.1210  152.4090   25.6690 O   0  0  0  0  0  0  0  0  0  0  0  0
   53.3980  154.5840   26.4840 C   0  0  0  0  0  0  0  0  0  0  0  0
   52.7810  154.0300   27.6910 C   0  0  0  0  0  0  0  0  0  0  0  0
   52.7830  152.8250   27.9300 O   0  0  0  0  0  0  0  0  0  0  0  0
   52.1420  154.9810   28.6300 C   0  0  0  0  0  0  0  0  0  0  0  0
   51.5480  154.4470   29.7580 O   0  0  0  0  0  0  0  0  0  0  0  0
   52.2550  158.4980   29.4880 C   0  0  0  0  0  0  0  0  0  0  0  0
   51.7120  159.5010   30.3200 C   0  0  0  0  0  0  0  0  0  0  0  0
   52.5140  160.7450   30.6150 C   0  0  0  0  0  0  0  0  0  0  0  0
   51.9520  161.8730   30.0780 F   0  0  0  0  0  0  0  0  0  0  0  0
   53.7810  160.7140   30.1080 F   0  0  0  0  0  0  0  0  0  0  0  0
   52.6360  161.0180   31.9460 F   0  0  0  0  0  0  0  0  0  0  0  0
   49.6550  159.8890   33.0880 C   0  0  0  0  0  0  0  0  0  0  0  0
   49.2070  161.0930   33.9490 C   0  0  0  0  0  0  0  0  0  0  0  0
   47.7208  162.6557   35.2868 H   0  0  0  0  0  0  0  0  0  0  0  0
   48.3258  163.7464   33.9941 H   0  0  0  0  0  0  0  0  0  0  0  0
   46.6084  163.2198   33.9941 H   0  0  0  0  0  0  0  0  0  0  0  0
   47.2150  161.1020   33.4320 H   0  0  0  0  0  0  0  0  0  0  0  0
   47.3296  162.5940   31.5907 H   0  0  0  0  0  0  0  0  0  0  0  0
   49.0731  162.8939   32.0143 H   0  0  0  0  0  0  0  0  0  0  0  0
   47.8717  160.2410   31.0583 H   0  0  0  0  0  0  0  0  0  0  0  0
   48.9254  161.3463   30.1069 H   0  0  0  0  0  0  0  0  0  0  0  0
   48.7206  158.0018   30.9910 H   0  0  0  0  0  0  0  0  0  0  0  0
   49.6994  156.2526   29.5288 H   0  0  0  0  0  0  0  0  0  0  0  0
   53.8712  157.6172   25.0000 H   0  0  0  0  0  0  0  0  0  0  0  0
   55.0033  156.1613   23.3146 H   0  0  0  0  0  0  0  0  0  0  0  0
   55.1020  153.6917   23.6632 H   0  0  0  0  0  0  0  0  0  0  0  0
   54.9590  151.9900   25.6390 H   0  0  0  0  0  0  0  0  0  0  0  0
   52.0220  154.4120   30.5660 H   0  0  0  0  0  0  0  0  0  0  0  0
   53.2618  158.6379   29.0674 H   0  0  0  0  0  0  0  0  0  0  0  0
   48.8691  159.1194   33.1000 H   0  0  0  0  0  0  0  0  0  0  0  0
   50.5868  159.4751   33.5008 H   0  0  0  0  0  0  0  0  0  0  0  0
   48.9900  160.7379   34.9672 H   0  0  0  0  0  0  0  0  0  0  0  0
   50.0231  161.8305   33.9448 H   0  0  0  0  0  0  0  0  0  0  0  0
  1  2  1  0
  2  3  1  0
  3  4  1  0
  4  5  1  0
  5  6  1  0
  6  7  2  0
  7  8  1  0
  8  9  2  0
  9 10  1  0
 10 11  1  0
 11 12  1  0
 12 13  2  0
 13 14  1  0
 14 15  2  0
 15 16  1  0
 16 17  1  0
 16 18  2  0
 18 19  1  0
 19 20  2  0
 19 21  1  0
 21 22  1  0
  9 23  1  0
 23 24  2  0
 24 25  1  0
 25 26  1  0
 25 27  1  0
 25 28  1  0
  5 29  1  0
 29 30  1  0
 30  2  1  0
 24  6  1  0
 21 10  2  0
 18 12  1  0
  1 31  1  0
  1 32  1  0
  1 33  1  0
  2 34  1  0
  3 35  1  0
  3 36  1  0
  4 37  1  0
  4 38  1  0
  7 39  1  0
  8 40  1  0
 13 41  1  0
 14 42  1  0
 15 43  1  0
 17 44  1  0
 22 45  1  0
 23 46  1  0
 29 47  1  0
 29 48  1  0
 30 49  1  0
 30 50  1  0
M  CHG  1   2   1
M  END
>  <meeko>  (4) 
{"is_sidechain": [false], "free_energy": -8.421, "intermolecular_energy": -9.798, "internal_energy": -0.414}

$$$$
