cand_053_out
     RDKit          3D

 44 46  0  0  0  0  0  0  0  0999 V2000
   48.6770  161.5130   33.8060 C   0  0  0  0  0  0  0  0  0  0  0  0
   50.0070  161.1680   33.1550 C   0  0  0  0  0  0  0  0  0  0  0  0
   49.9400  161.3270   31.6350 C   0  0  0  0  0  0  0  0  0  0  0  0
   50.3650  160.0630   30.9200 C   0  0  0  0  0  0  0  0  0  0  0  0
   51.6530  160.0220   30.3580 C   0  0  0  0  0  0  0  0  0  0  0  0
   52.1170  158.8830   29.6970 C   0  0  0  0  0  0  0  0  0  0  0  0
   51.3100  157.7460   29.5830 C   0  0  0  0  0  0  0  0  0  0  0  0
   51.8070  156.5610   28.8510 C   0  0  0  0  0  0  0  0  0  0  0  0
   52.3980  156.8860   27.6350 O   0  0  0  0  0  0  0  0  0  0  0  0
   52.9010  155.8790   26.8520 C   0  0  0  0  0  0  0  0  0  0  0  0
   53.4710  156.2500   25.6330 C   0  0  0  0  0  0  0  0  0  0  0  0
   54.0050  155.2740   24.7880 C   0  0  0  0  0  0  0  0  0  0  0  0
   53.9690  153.9280   25.1630 C   0  0  0  0  0  0  0  0  0  0  0  0
   53.3990  153.5630   26.3790 C   0  0  0  0  0  0  0  0  0  0  0  0
   53.3980  152.2290   26.6840 O   0  0  0  0  0  0  0  0  0  0  0  0
   52.8650  154.5390   27.2240 C   0  0  0  0  0  0  0  0  0  0  0  0
   52.2580  154.1980   28.5110 C   0  0  0  0  0  0  0  0  0  0  0  0
   52.1960  153.0370   28.9130 O   0  0  0  0  0  0  0  0  0  0  0  0
   51.7130  155.3060   29.3270 C   0  0  0  0  0  0  0  0  0  0  0  0
   51.1540  154.9720   30.5480 O   0  0  0  0  0  0  0  0  0  0  0  0
   50.0250  157.7870   30.1390 C   0  0  0  0  0  0  0  0  0  0  0  0
   49.5410  158.9240   30.8190 C   0  0  0  0  0  0  0  0  0  0  0  0
   48.1380  158.8700   31.3800 C   0  0  0  0  0  0  0  0  0  0  0  0
   47.2360  159.9250   30.7570 C   0  0  0  0  0  0  0  0  0  0  0  0
   48.7861  161.4847   34.9002 H   0  0  0  0  0  0  0  0  0  0  0  0
   48.3669  162.5213   33.4944 H   0  0  0  0  0  0  0  0  0  0  0  0
   47.9158  160.7826   33.4944 H   0  0  0  0  0  0  0  0  0  0  0  0
   50.7843  161.8378   33.5514 H   0  0  0  0  0  0  0  0  0  0  0  0
   50.2436  160.1185   33.3841 H   0  0  0  0  0  0  0  0  0  0  0  0
   48.9062  161.5687   31.3472 H   0  0  0  0  0  0  0  0  0  0  0  0
   50.6294  162.1333   31.3442 H   0  0  0  0  0  0  0  0  0  0  0  0
   52.3068  160.9028   30.4405 H   0  0  0  0  0  0  0  0  0  0  0  0
   53.1271  158.8797   29.2616 H   0  0  0  0  0  0  0  0  0  0  0  0
   53.4997  157.3094   25.3381 H   0  0  0  0  0  0  0  0  0  0  0  0
   54.4541  155.5650   23.8269 H   0  0  0  0  0  0  0  0  0  0  0  0
   54.3902  153.1591   24.4986 H   0  0  0  0  0  0  0  0  0  0  0  0
   53.1910  151.9470   27.5530 H   0  0  0  0  0  0  0  0  0  0  0  0
   50.9480  155.6440   31.1680 H   0  0  0  0  0  0  0  0  0  0  0  0
   49.3737  156.9059   30.0424 H   0  0  0  0  0  0  0  0  0  0  0  0
   47.7130  157.8755   31.1793 H   0  0  0  0  0  0  0  0  0  0  0  0
   48.1956  159.0664   32.4608 H   0  0  0  0  0  0  0  0  0  0  0  0
   46.7427  160.5020   31.5530 H   0  0  0  0  0  0  0  0  0  0  0  0
   47.8393  160.6015   30.1338 H   0  0  0  0  0  0  0  0  0  0  0  0
   46.4739  159.4342   30.1338 H   0  0  0  0  0  0  0  0  0  0  0  0
  1  2  1  0
  2  3  1  0
  3  4  1  0
  4  5  2  0
  5  6  1  0
  6  7  2  0
  7  8  1  0
  8  9  1  0
  9 10  1  0
 10 11  2  0
 11 12  1  0
 12 13  2  0
 13 14  1  0
 14 15  1  0
 14 16  2  0
 16 17  1  0
 17 18  2  0
 17 19  1  0
 19 20  1  0
  7 21  1  0
 21 22  2  0
 22 23  1  0
 23 24  1  0
 22  4  1  0
 19  8  2  0
 16 10  1  0
  1 25  1  0
  1 26  1  0
  1 27  1  0
  2 28  1  0
  2 29  1  0
  3 30  1  0
  3 31  1  0
  5 32  1  0
  6 33  1  0
 11 34  1  0
 12 35  1  0
 13 36  1  0
 15 37  1  0
 20 38  1  0
 21 39  1  0
 23 40  1  0
 23 41  1  0
 24 42  1  0
 24 43  1  0
 24 44  1  0
M  END
>  <meeko>  (1) 
{"is_sidechain": [false], "free_energy": -10.83, "intermolecular_energy": -13.996, "internal_energy": -0.192}

$$$$
cand_053_out
     RDKit          3D

 44 46  0  0  0  0  0  0  0  0999 V2000
   49.6070  161.7130   33.8240 C   0  0  0  0  0  0  0  0  0  0  0  0
   49.1620  160.4170   33.1650 C   0  0  0  0  0  0  0  0  0  0  0  0
   48.9940  160.5900   31.6540 C   0  0  0  0  0  0  0  0  0  0  0  0
   49.7650  159.5410   30.8810 C   0  0  0  0  0  0  0  0  0  0  0  0
   49.1820  158.2700   30.7300 C   0  0  0  0  0  0  0  0  0  0  0  0
   49.8300  157.2590   30.0180 C   0  0  0  0  0  0  0  0  0  0  0  0
   51.0760  157.4880   29.4270 C   0  0  0  0  0  0  0  0  0  0  0  0
   51.7600  156.3960   28.7040 C   0  0  0  0  0  0  0  0  0  0  0  0
   52.3110  156.8100   27.4960 O   0  0  0  0  0  0  0  0  0  0  0  0
   52.9760  155.8950   26.7210 C   0  0  0  0  0  0  0  0  0  0  0  0
   53.4980  156.3510   25.5100 C   0  0  0  0  0  0  0  0  0  0  0  0
   54.1890  155.4710   24.6730 C   0  0  0  0  0  0  0  0  0  0  0  0
   54.3570  154.1360   25.0490 C   0  0  0  0  0  0  0  0  0  0  0  0
   53.8340  153.6840   26.2570 C   0  0  0  0  0  0  0  0  0  0  0  0
   54.0350  152.3660   26.5630 O   0  0  0  0  0  0  0  0  0  0  0  0
   53.1430  154.5650   27.0930 C   0  0  0  0  0  0  0  0  0  0  0  0
   52.5780  154.1310   28.3720 C   0  0  0  0  0  0  0  0  0  0  0  0
   52.6910  152.9750   28.7740 O   0  0  0  0  0  0  0  0  0  0  0  0
   51.8560  155.1410   29.1800 C   0  0  0  0  0  0  0  0  0  0  0  0
   51.3380  154.7230   30.3920 O   0  0  0  0  0  0  0  0  0  0  0  0
   51.6600  158.7530   29.5800 C   0  0  0  0  0  0  0  0  0  0  0  0
   51.0180  159.7900   30.2890 C   0  0  0  0  0  0  0  0  0  0  0  0
   51.7330  161.1180   30.4010 C   0  0  0  0  0  0  0  0  0  0  0  0
   52.6110  161.1880   31.6410 C   0  0  0  0  0  0  0  0  0  0  0  0
   49.5683  161.6004   34.9175 H   0  0  0  0  0  0  0  0  0  0  0  0
   50.6368  161.9464   33.5156 H   0  0  0  0  0  0  0  0  0  0  0  0
   48.9378  162.5298   33.5156 H   0  0  0  0  0  0  0  0  0  0  0  0
   49.9179  159.6407   33.3548 H   0  0  0  0  0  0  0  0  0  0  0  0
   48.1903  160.1270   33.5911 H   0  0  0  0  0  0  0  0  0  0  0  0
   47.9266  160.5056   31.4020 H   0  0  0  0  0  0  0  0  0  0  0  0
   49.3877  161.5789   31.3762 H   0  0  0  0  0  0  0  0  0  0  0  0
   48.1988  158.0692   31.1805 H   0  0  0  0  0  0  0  0  0  0  0  0
   49.3550  156.2716   29.9210 H   0  0  0  0  0  0  0  0  0  0  0  0
   53.3657  157.4023   25.2145 H   0  0  0  0  0  0  0  0  0  0  0  0
   54.6007  155.8294   23.7180 H   0  0  0  0  0  0  0  0  0  0  0  0
   54.9019  153.4430   24.3911 H   0  0  0  0  0  0  0  0  0  0  0  0
   54.0370  151.7220   25.8820 H   0  0  0  0  0  0  0  0  0  0  0  0
   51.4930  153.8490   30.6910 H   0  0  0  0  0  0  0  0  0  0  0  0
   52.6476  158.9427   29.1343 H   0  0  0  0  0  0  0  0  0  0  0  0
   52.3636  161.2583   29.5107 H   0  0  0  0  0  0  0  0  0  0  0  0
   50.9722  161.9088   30.4775 H   0  0  0  0  0  0  0  0  0  0  0  0
   51.9798  161.1377   32.5405 H   0  0  0  0  0  0  0  0  0  0  0  0
   53.3155  160.3432   31.6396 H   0  0  0  0  0  0  0  0  0  0  0  0
   53.1727  162.1338   31.6396 H   0  0  0  0  0  0  0  0  0  0  0  0
  1  2  1  0
  2  3  1  0
  3  4  1  0
  4  5  2  0
  5  6  1  0
  6  7  2  0
  7  8  1  0
  8  9  1  0
  9 10  1  0
 10 11  2  0
 11 12  1  0
 12 13  2  0
 13 14  1  0
 14 15  1  0
 14 16  2  0
 16 17  1  0
 17 18  2  0
 17 19  1  0
 19 20  1  0
  7 21  1  0
 21 22  2  0
 22 23  1  0
 23 24  1  0
 22  4  1  0
 19  8  2  0
 16 10  1  0
  1 25  1  0
  1 26  1  0
  1 27  1  0
  2 28  1  0
  2 29  1  0
  3 30  1  0
  3 31  1  0
  5 32  1  0
  6 33  1  0
 11 34  1  0
 12 35  1  0
 13 36  1  0
 15 37  1  0
 20 38  1  0
 21 39  1  0
 23 40  1  0
 23 41  1  0
 24 42  1  0
 24 43  1  0
 24 44  1  0
M  END
>  <meeko>  (2) 
{"is_sidechain": [false], "free_energy": -10.454, "intermolecular_energy": -13.11, "internal_energy": -0.593}

$$$$
cand_053_out
     RDKit          3D

 44 46  0  0  0  0  0  0  0  0999 V2000
   54.3320  151.0930   24.7470 C   0  0  0  0  0  0  0  0  0  0  0  0
   54.1600  152.0900   25.8820 C   0  0  0  0  0  0  0  0  0  0  0  0
   52.6930  152.2090   26.3010 C   0  0  0  0  0  0  0  0  0  0  0  0
   52.4110  153.5290   26.9860 C   0  0  0  0  0  0  0  0  0  0  0  0
   51.9770  153.5000   28.3230 C   0  0  0  0  0  0  0  0  0  0  0  0
   51.7110  154.6800   29.0210 C   0  0  0  0  0  0  0  0  0  0  0  0
   51.8800  155.9250   28.4080 C   0  0  0  0  0  0  0  0  0  0  0  0
   51.5640  157.1620   29.1540 C   0  0  0  0  0  0  0  0  0  0  0  0
   50.2590  157.1850   29.6330 O   0  0  0  0  0  0  0  0  0  0  0  0
   49.8320  158.2770   30.3430 C   0  0  0  0  0  0  0  0  0  0  0  0
   48.5100  158.2640   30.7910 C   0  0  0  0  0  0  0  0  0  0  0  0
   48.0110  159.3450   31.5220 C   0  0  0  0  0  0  0  0  0  0  0  0
   48.8350  160.4370   31.8060 C   0  0  0  0  0  0  0  0  0  0  0  0
   50.1530  160.4470   31.3570 C   0  0  0  0  0  0  0  0  0  0  0  0
   50.9030  161.5470   31.6710 O   0  0  0  0  0  0  0  0  0  0  0  0
   50.6510  159.3660   30.6250 C   0  0  0  0  0  0  0  0  0  0  0  0
   52.0290  159.3360   30.1360 C   0  0  0  0  0  0  0  0  0  0  0  0
   52.8170  160.2560   30.3520 O   0  0  0  0  0  0  0  0  0  0  0  0
   52.4560  158.1470   29.3620 C   0  0  0  0  0  0  0  0  0  0  0  0
   53.7660  158.1240   28.9160 O   0  0  0  0  0  0  0  0  0  0  0  0
   52.3100  155.9550   27.0750 C   0  0  0  0  0  0  0  0  0  0  0  0
   52.5920  154.7750   26.3550 C   0  0  0  0  0  0  0  0  0  0  0  0
   53.0460  154.9130   24.9200 C   0  0  0  0  0  0  0  0  0  0  0  0
   54.3920  155.6150   24.8140 C   0  0  0  0  0  0  0  0  0  0  0  0
   54.5051  150.0897   25.1634 H   0  0  0  0  0  0  0  0  0  0  0  0
   53.4226  151.0813   24.1282 H   0  0  0  0  0  0  0  0  0  0  0  0
   55.1927  151.3867   24.1282 H   0  0  0  0  0  0  0  0  0  0  0  0
   54.7532  151.7553   26.7458 H   0  0  0  0  0  0  0  0  0  0  0  0
   54.5021  153.0754   25.5329 H   0  0  0  0  0  0  0  0  0  0  0  0
   52.0591  152.1296   25.4055 H   0  0  0  0  0  0  0  0  0  0  0  0
   52.4733  151.3998   27.0129 H   0  0  0  0  0  0  0  0  0  0  0  0
   51.8448  152.5316   28.8277 H   0  0  0  0  0  0  0  0  0  0  0  0
   51.3649  154.6293   30.0639 H   0  0  0  0  0  0  0  0  0  0  0  0
   47.8618  157.4035   30.5687 H   0  0  0  0  0  0  0  0  0  0  0  0
   46.9689  159.3364   31.8741 H   0  0  0  0  0  0  0  0  0  0  0  0
   48.4432  161.2874   32.3833 H   0  0  0  0  0  0  0  0  0  0  0  0
   51.1780  161.6900   32.5550 H   0  0  0  0  0  0  0  0  0  0  0  0
   54.3220  157.4040   29.1350 H   0  0  0  0  0  0  0  0  0  0  0  0
   52.4313  156.9273   26.5750 H   0  0  0  0  0  0  0  0  0  0  0  0
   53.1325  153.9100   24.4767 H   0  0  0  0  0  0  0  0  0  0  0  0
   52.3020  155.5212   24.3848 H   0  0  0  0  0  0  0  0  0  0  0  0
   54.7804  155.8176   25.8230 H   0  0  0  0  0  0  0  0  0  0  0  0
   55.0996  154.9711   24.2712 H   0  0  0  0  0  0  0  0  0  0  0  0
   54.2690  156.5638   24.2712 H   0  0  0  0  0  0  0  0  0  0  0  0
  1  2  1  0
  2  3  1  0
  3  4  1  0
  4  5  2  0
  5  6  1  0
  6  7  2  0
  7  8  1  0
  8  9  1  0
  9 10  1  0
 10 11  2  0
 11 12  1  0
 12 13  2  0
 13 14  1  0
 14 15  1  0
 14 16  2  0
 16 17  1  0
 17 18  2  0
 17 19  1  0
 19 20  1  0
  7 21  1  0
 21 22  2  0
 22 23  1  0
 23 24  1  0
 22  4  1  0
 19  8  2  0
 16 10  1  0
  1 25  1  0
  1 26  1  0
  1 27  1  0
  2 28  1  0
  2 29  1  0
  3 30  1  0
  3 31  1  0
  5 32  1  0
  6 33  1  0
 11 34  1  0
 12 35  1  0
 13 36  1  0
 15 37  1  0
 20 38  1  0
 21 39  1  0
 23 40  1  0
 23 41  1  0
 24 42  1  0
 24 43  1  0
 24 44  1  0
M  END
>  <meeko>  (3) 
{"is_sidechain": [false], "free_energy": -10.368, "intermolecular_energy": -13.209, "internal_energy": -0.381}

$$$$
cand_053_out
     RDKit          3D

 44 46  0  0  0  0  0  0  0  0999 V2000
   52.9550  162.2580   30.8150 C   0  0  0  0  0  0  0  0  0  0  0  0
   52.2300  161.2560   31.6990 C   0  0  0  0  0  0  0  0  0  0  0  0
   50.9540  160.7430   31.0300 C   0  0  0  0  0  0  0  0  0  0  0  0
   51.1740  159.4080   30.3520 C   0  0  0  0  0  0  0  0  0  0  0  0
   52.3950  159.1960   29.6890 C   0  0  0  0  0  0  0  0  0  0  0  0
   52.6720  157.9840   29.0540 C   0  0  0  0  0  0  0  0  0  0  0  0
   51.7400  156.9420   29.0690 C   0  0  0  0  0  0  0  0  0  0  0  0
   52.0380  155.6770   28.3650 C   0  0  0  0  0  0  0  0  0  0  0  0
   52.5900  155.8780   27.1050 O   0  0  0  0  0  0  0  0  0  0  0  0
   52.9140  154.7860   26.3400 C   0  0  0  0  0  0  0  0  0  0  0  0
   53.4510  155.0350   25.0760 C   0  0  0  0  0  0  0  0  0  0  0  0
   53.8050  153.9680   24.2470 C   0  0  0  0  0  0  0  0  0  0  0  0
   53.6230  152.6530   24.6830 C   0  0  0  0  0  0  0  0  0  0  0  0
   53.0870  152.4090   25.9450 C   0  0  0  0  0  0  0  0  0  0  0  0
   52.9370  151.0980   26.3080 O   0  0  0  0  0  0  0  0  0  0  0  0
   52.7320  153.4770   26.7730 C   0  0  0  0  0  0  0  0  0  0  0  0
   52.1670  153.2640   28.1060 C   0  0  0  0  0  0  0  0  0  0  0  0
   51.9840  152.1370   28.5620 O   0  0  0  0  0  0  0  0  0  0  0  0
   51.8160  154.4630   28.9010 C   0  0  0  0  0  0  0  0  0  0  0  0
   51.2950  154.2490   30.1650 O   0  0  0  0  0  0  0  0  0  0  0  0
   50.5200  157.1520   29.7260 C   0  0  0  0  0  0  0  0  0  0  0  0
   50.2250  158.3670   30.3810 C   0  0  0  0  0  0  0  0  0  0  0  0
   48.8800  158.4970   31.0580 C   0  0  0  0  0  0  0  0  0  0  0  0
   47.8430  159.1370   30.1460 C   0  0  0  0  0  0  0  0  0  0  0  0
   53.4834  162.9882   31.4455 H   0  0  0  0  0  0  0  0  0  0  0  0
   53.6808  161.7289   30.1799 H   0  0  0  0  0  0  0  0  0  0  0  0
   52.2255  162.7819   30.1799 H   0  0  0  0  0  0  0  0  0  0  0  0
   52.8976  160.4045   31.8969 H   0  0  0  0  0  0  0  0  0  0  0  0
   51.9512  161.7593   32.6365 H   0  0  0  0  0  0  0  0  0  0  0  0
   50.1716  160.6295   31.7948 H   0  0  0  0  0  0  0  0  0  0  0  0
   50.6531  161.4714   30.2626 H   0  0  0  0  0  0  0  0  0  0  0  0
   53.1459  159.9996   29.6701 H   0  0  0  0  0  0  0  0  0  0  0  0
   53.6331  157.8475   28.5367 H   0  0  0  0  0  0  0  0  0  0  0  0
   53.5953  156.0702   24.7331 H   0  0  0  0  0  0  0  0  0  0  0  0
   54.2274  154.1631   23.2502 H   0  0  0  0  0  0  0  0  0  0  0  0
   53.9025  151.8124   24.0309 H   0  0  0  0  0  0  0  0  0  0  0  0
   52.8700  150.4350   25.6500 H   0  0  0  0  0  0  0  0  0  0  0  0
   50.4510  154.5890   30.3860 H   0  0  0  0  0  0  0  0  0  0  0  0
   49.7707  156.3467   29.7314 H   0  0  0  0  0  0  0  0  0  0  0  0
   48.5293  157.4952   31.3467 H   0  0  0  0  0  0  0  0  0  0  0  0
   49.0038  159.1440   31.9390 H   0  0  0  0  0  0  0  0  0  0  0  0
   47.0644  159.6175   30.7566 H   0  0  0  0  0  0  0  0  0  0  0  0
   48.3293  159.8923   29.5111 H   0  0  0  0  0  0  0  0  0  0  0  0
   47.3859  158.3637   29.5111 H   0  0  0  0  0  0  0  0  0  0  0  0
  1  2  1  0
  2  3  1  0
  3  4  1  0
  4  5  2  0
  5  6  1  0
  6  7  2  0
  7  8  1  0
  8  9  1  0
  9 10  1  0
 10 11  2  0
 11 12  1  0
 12 13  2  0
 13 14  1  0
 14 15  1  0
 14 16  2  0
 16 17  1  0
 17 18  2  0
 17 19  1  0
 19 20  1  0
  7 21  1  0
 21 22  2  0
 22 23  1  0
 23 24  1  0
 22  4  1  0
 19  8  2  0
 16 10  1  0
  1 25  1  0
  1 26  1  0
  1 27  1  0
  2 28  1  0
  2 29  1  0
  3 30  1  0
  3 31  1  0
  5 32  1  0
  6 33  1  0
 11 34  1  0
 12 35  1  0
 13 36  1  0
 15 37  1  0
 20 38  1  0
 21 39  1  0
 23 40  1  0
 23 41  1  0
 24 42  1  0
 24 43  1  0
 24 44  1  0
M  END
>  <meeko>  (4) 
{"is_sidechain": [false], "free_energy": -10.024, "intermolecular_energy": -12.899, "internal_energy": -0.247}

$$$$
cand_053_out
     RDKit          3D

 44 46  0  0  0  0  0  0  0  0999 V2000
   48.2480  161.8270   31.0040 C   0  0  0  0  0  0  0  0  0  0  0  0
   48.0120  160.3260   30.9540 C   0  0  0  0  0  0  0  0  0  0  0  0
   49.0930  159.5660   31.7250 C   0  0  0  0  0  0  0  0  0  0  0  0
   49.9180  158.6840   30.8120 C   0  0  0  0  0  0  0  0  0  0  0  0
   49.4560  157.3810   30.5570 C   0  0  0  0  0  0  0  0  0  0  0  0
   50.1580  156.5180   29.7130 C   0  0  0  0  0  0  0  0  0  0  0  0
   51.3400  156.9330   29.0920 C   0  0  0  0  0  0  0  0  0  0  0  0
   52.0870  155.9940   28.2280 C   0  0  0  0  0  0  0  0  0  0  0  0
   52.6650  156.6170   27.1270 O   0  0  0  0  0  0  0  0  0  0  0  0
   53.3870  155.8610   26.2400 C   0  0  0  0  0  0  0  0  0  0  0  0
   53.9360  156.5250   25.1420 C   0  0  0  0  0  0  0  0  0  0  0  0
   54.6860  155.8140   24.2010 C   0  0  0  0  0  0  0  0  0  0  0  0
   54.8860  154.4410   24.3600 C   0  0  0  0  0  0  0  0  0  0  0  0
   54.3360  153.7820   25.4560 C   0  0  0  0  0  0  0  0  0  0  0  0
   54.5720  152.4370   25.5490 O   0  0  0  0  0  0  0  0  0  0  0  0
   53.5860  154.4930   26.3960 C   0  0  0  0  0  0  0  0  0  0  0  0
   52.9920  153.8390   27.5630 C   0  0  0  0  0  0  0  0  0  0  0  0
   53.1310  152.6350   27.7750 O   0  0  0  0  0  0  0  0  0  0  0  0
   52.2080  154.6810   28.4950 C   0  0  0  0  0  0  0  0  0  0  0  0
   51.6630  154.0540   29.6010 O   0  0  0  0  0  0  0  0  0  0  0  0
   51.8050  158.2300   29.3490 C   0  0  0  0  0  0  0  0  0  0  0  0
   51.1050  159.1200   30.1900 C   0  0  0  0  0  0  0  0  0  0  0  0
   51.6900  160.4970   30.4070 C   0  0  0  0  0  0  0  0  0  0  0  0
   51.8220  160.8330   31.8850 C   0  0  0  0  0  0  0  0  0  0  0  0
   48.2996  162.1553   32.0526 H   0  0  0  0  0  0  0  0  0  0  0  0
   49.1948  162.0664   30.4978 H   0  0  0  0  0  0  0  0  0  0  0  0
   47.4203  162.3454   30.4978 H   0  0  0  0  0  0  0  0  0  0  0  0
   47.0310  160.1028   31.3988 H   0  0  0  0  0  0  0  0  0  0  0  0
   48.0455  160.0047   29.9025 H   0  0  0  0  0  0  0  0  0  0  0  0
   49.7581  160.2921   32.2153 H   0  0  0  0  0  0  0  0  0  0  0  0
   48.5966  158.9223   32.4661 H   0  0  0  0  0  0  0  0  0  0  0  0
   48.5253  157.0352   31.0306 H   0  0  0  0  0  0  0  0  0  0  0  0
   49.7773  155.5015   29.5349 H   0  0  0  0  0  0  0  0  0  0  0  0
   53.7786  157.6065   25.0174 H   0  0  0  0  0  0  0  0  0  0  0  0
   55.1189  156.3360   23.3349 H   0  0  0  0  0  0  0  0  0  0  0  0
   55.4772  153.8811   23.6204 H   0  0  0  0  0  0  0  0  0  0  0  0
   53.9790  151.8290   25.1540 H   0  0  0  0  0  0  0  0  0  0  0  0
   51.5840  153.1210   29.6190 H   0  0  0  0  0  0  0  0  0  0  0  0
   52.7431  158.5635   28.8812 H   0  0  0  0  0  0  0  0  0  0  0  0
   52.6867  160.5367   29.9433 H   0  0  0  0  0  0  0  0  0  0  0  0
   51.0097  161.2312   29.9508 H   0  0  0  0  0  0  0  0  0  0  0  0
   51.4854  159.9763   32.4873 H   0  0  0  0  0  0  0  0  0  0  0  0
   52.8740  161.0544   32.1182 H   0  0  0  0  0  0  0  0  0  0  0  0
   51.2021  161.7112   32.1182 H   0  0  0  0  0  0  0  0  0  0  0  0
  1  2  1  0
  2  3  1  0
  3  4  1  0
  4  5  2  0
  5  6  1  0
  6  7  2  0
  7  8  1  0
  8  9  1  0
  9 10  1  0
 10 11  2  0
 11 12  1  0
 12 13  2  0
 13 14  1  0
 14 15  1  0
 14 16  2  0
 16 17  1  0
 17 18  2  0
 17 19  1  0
 19 20  1  0
  7 21  1  0
 21 22  2  0
 22 23  1  0
 23 24  1  0
 22  4  1  0
 19  8  2  0
 16 10  1  0
  1 25  1  0
  1 26  1  0
  1 27  1  0
  2 28  1  0
  2 29  1  0
  3 30  1  0
  3 31  1  0
  5 32  1  0
  6 33  1  0
 11 34  1  0
 12 35  1  0
 13 36  1  0
 15 37  1  0
 20 38  1  0
 21 39  1  0
 23 40  1  0
 23 41  1  0
 24 42  1  0
 24 43  1  0
 24 44  1  0
M  END
>  <meeko>  (5) 
{"is_sidechain": [false], "free_energy": -9.401, "intermolecular_energy": -12.368, "internal_energy": 0.028}

$$$$
cand_053_out
     RDKit          3D

 44 46  0  0  0  0  0  0  0  0999 V2000
   53.4460  150.4870   25.2960 C   0  0  0  0  0  0  0  0  0  0  0  0
   52.7660  151.6740   25.9600 C   0  0  0  0  0  0  0  0  0  0  0  0
   53.7890  152.6190   26.5950 C   0  0  0  0  0  0  0  0  0  0  0  0
   53.1210  153.8070   27.2540 C   0  0  0  0  0  0  0  0  0  0  0  0
   52.6410  153.6510   28.5660 C   0  0  0  0  0  0  0  0  0  0  0  0
   52.0270  154.7080   29.2410 C   0  0  0  0  0  0  0  0  0  0  0  0
   51.8820  155.9560   28.6280 C   0  0  0  0  0  0  0  0  0  0  0  0
   51.2010  157.0540   29.3460 C   0  0  0  0  0  0  0  0  0  0  0  0
   52.0420  158.1300   29.6100 O   0  0  0  0  0  0  0  0  0  0  0  0
   51.5380  159.2200   30.2740 C   0  0  0  0  0  0  0  0  0  0  0  0
   52.4210  160.2690   30.5300 C   0  0  0  0  0  0  0  0  0  0  0  0
   51.9720  161.4100   31.2010 C   0  0  0  0  0  0  0  0  0  0  0  0
   50.6410  161.5000   31.6130 C   0  0  0  0  0  0  0  0  0  0  0  0
   49.7620  160.4510   31.3550 C   0  0  0  0  0  0  0  0  0  0  0  0
   48.4730  160.6060   31.7860 O   0  0  0  0  0  0  0  0  0  0  0  0
   50.2120  159.3100   30.6850 C   0  0  0  0  0  0  0  0  0  0  0  0
   49.3220  158.1860   30.3940 C   0  0  0  0  0  0  0  0  0  0  0  0
   48.1360  158.1940   30.7180 O   0  0  0  0  0  0  0  0  0  0  0  0
   49.8990  157.0200   29.6870 C   0  0  0  0  0  0  0  0  0  0  0  0
   49.0450  155.9680   29.4050 O   0  0  0  0  0  0  0  0  0  0  0  0
   52.3560  156.1120   27.3190 C   0  0  0  0  0  0  0  0  0  0  0  0
   52.9870  155.0590   26.6240 C   0  0  0  0  0  0  0  0  0  0  0  0
   53.4610  155.3260   25.2130 C   0  0  0  0  0  0  0  0  0  0  0  0
   54.1980  156.6520   25.1020 C   0  0  0  0  0  0  0  0  0  0  0  0
   53.8351  149.8078   26.0689 H   0  0  0  0  0  0  0  0  0  0  0  0
   52.7181  149.9508   24.6694 H   0  0  0  0  0  0  0  0  0  0  0  0
   54.2767  150.8437   24.6694 H   0  0  0  0  0  0  0  0  0  0  0  0
   52.1900  152.2263   25.2029 H   0  0  0  0  0  0  0  0  0  0  0  0
   52.1047  151.2954   26.7533 H   0  0  0  0  0  0  0  0  0  0  0  0
   54.3620  152.0660   27.3539 H   0  0  0  0  0  0  0  0  0  0  0  0
   54.4487  152.9948   25.7990 H   0  0  0  0  0  0  0  0  0  0  0  0
   52.7510  152.6793   29.0697 H   0  0  0  0  0  0  0  0  0  0  0  0
   51.6539  154.5572   30.2647 H   0  0  0  0  0  0  0  0  0  0  0  0
   53.4693  160.1984   30.2043 H   0  0  0  0  0  0  0  0  0  0  0  0
   52.6676  162.2375   31.4046 H   0  0  0  0  0  0  0  0  0  0  0  0
   50.2872  162.3981   32.1406 H   0  0  0  0  0  0  0  0  0  0  0  0
   47.8860  161.1640   31.3150 H   0  0  0  0  0  0  0  0  0  0  0  0
   48.3810  156.0670   28.7520 H   0  0  0  0  0  0  0  0  0  0  0  0
   52.2326  157.0838   26.8186 H   0  0  0  0  0  0  0  0  0  0  0  0
   54.1391  154.5158   24.9066 H   0  0  0  0  0  0  0  0  0  0  0  0
   52.5769  155.3724   24.5601 H   0  0  0  0  0  0  0  0  0  0  0  0
   54.4124  157.0378   26.1096 H   0  0  0  0  0  0  0  0  0  0  0  0
   55.1423  156.5022   24.5581 H   0  0  0  0  0  0  0  0  0  0  0  0
   53.5722  157.3749   24.5581 H   0  0  0  0  0  0  0  0  0  0  0  0
  1  2  1  0
  2  3  1  0
  3  4  1  0
  4  5  2  0
  5  6  1  0
  6  7  2  0
  7  8  1  0
  8  9  1  0
  9 10  1  0
 10 11  2  0
 11 12  1  0
 12 13  2  0
 13 14  1  0
 14 15  1  0
 14 16  2  0
 16 17  1  0
 17 18  2  0
 17 19  1  0
 19 20  1  0
  7 21  1  0
 21 22  2  0
 22 23  1  0
 23 24  1  0
 22  4  1  0
 19  8  2  0
 16 10  1  0
  1 25  1  0
  1 26  1  0
  1 27  1  0
  2 28  1  0
  2 29  1  0
  3 30  1  0
  3 31  1  0
  5 32  1  0
  6 33  1  0
 11 34  1  0
 12 35  1  0
 13 36  1  0
 15 37  1  0
 20 38  1  0
 21 39  1  0
 23 40  1  0
 23 41  1  0
 24 42  1  0
 24 43  1  0
 24 44  1  0
M  END
>  <meeko>  (6) 
{"is_sidechain": [false], "free_energy": -9.075, "intermolecular_energy": -11.307, "internal_energy": -0.612}

$$$$
cand_053_out
     RDKit          3D

 44 46  0  0  0  0  0  0  0  0999 V2000
   54.1870  153.4990   23.9400 C   0  0  0  0  0  0  0  0  0  0  0  0
   53.2590  154.3150   24.8250 C   0  0  0  0  0  0  0  0  0  0  0  0
   53.4190  153.9370   26.2990 C   0  0  0  0  0  0  0  0  0  0  0  0
   52.8580  155.0020   27.2160 C   0  0  0  0  0  0  0  0  0  0  0  0
   53.0060  156.3470   26.8340 C   0  0  0  0  0  0  0  0  0  0  0  0
   52.5010  157.3820   27.6250 C   0  0  0  0  0  0  0  0  0  0  0  0
   51.8250  157.1040   28.8160 C   0  0  0  0  0  0  0  0  0  0  0  0
   51.3250  158.2130   29.6550 C   0  0  0  0  0  0  0  0  0  0  0  0
   49.9890  158.0620   30.0110 O   0  0  0  0  0  0  0  0  0  0  0  0
   49.3960  159.0220   30.7900 C   0  0  0  0  0  0  0  0  0  0  0  0
   48.0500  158.8370   31.1100 C   0  0  0  0  0  0  0  0  0  0  0  0
   47.3860  159.7770   31.9020 C   0  0  0  0  0  0  0  0  0  0  0  0
   48.0680  160.9010   32.3740 C   0  0  0  0  0  0  0  0  0  0  0  0
   49.4110  161.0820   32.0520 C   0  0  0  0  0  0  0  0  0  0  0  0
   50.0180  162.2040   32.5480 O   0  0  0  0  0  0  0  0  0  0  0  0
   50.0740  160.1420   31.2600 C   0  0  0  0  0  0  0  0  0  0  0  0
   51.4840  160.2950   30.8990 C   0  0  0  0  0  0  0  0  0  0  0  0
   52.1540  161.2530   31.2830 O   0  0  0  0  0  0  0  0  0  0  0  0
   52.0920  159.2470   30.0480 C   0  0  0  0  0  0  0  0  0  0  0  0
   53.4290  159.3950   29.7250 O   0  0  0  0  0  0  0  0  0  0  0  0
   51.6800  155.7640   29.2000 C   0  0  0  0  0  0  0  0  0  0  0  0
   52.1750  154.7040   28.4110 C   0  0  0  0  0  0  0  0  0  0  0  0
   51.9720  153.2930   28.9140 C   0  0  0  0  0  0  0  0  0  0  0  0
   51.5550  152.3460   27.7980 C   0  0  0  0  0  0  0  0  0  0  0  0
   54.8643  152.9034   24.5697 H   0  0  0  0  0  0  0  0  0  0  0  0
   53.5911  152.8270   23.3049 H   0  0  0  0  0  0  0  0  0  0  0  0
   54.7772  154.1760   23.3049 H   0  0  0  0  0  0  0  0  0  0  0  0
   53.4937  155.3826   24.7017 H   0  0  0  0  0  0  0  0  0  0  0  0
   52.2216  154.1065   24.5245 H   0  0  0  0  0  0  0  0  0  0  0  0
   52.8876  152.9918   26.4840 H   0  0  0  0  0  0  0  0  0  0  0  0
   54.4935  153.8343   26.5111 H   0  0  0  0  0  0  0  0  0  0  0  0
   53.5282  156.5885   25.8965 H   0  0  0  0  0  0  0  0  0  0  0  0
   52.6369  158.4262   27.3071 H   0  0  0  0  0  0  0  0  0  0  0  0
   47.5126  157.9519   30.7389 H   0  0  0  0  0  0  0  0  0  0  0  0
   46.3252  159.6319   32.1541 H   0  0  0  0  0  0  0  0  0  0  0  0
   47.5459  161.6411   32.9982 H   0  0  0  0  0  0  0  0  0  0  0  0
   49.5200  162.8260   33.0420 H   0  0  0  0  0  0  0  0  0  0  0  0
   53.8300  158.8110   29.1130 H   0  0  0  0  0  0  0  0  0  0  0  0
   51.1653  155.5318   30.1440 H   0  0  0  0  0  0  0  0  0  0  0  0
   52.9145  152.9328   29.3522 H   0  0  0  0  0  0  0  0  0  0  0  0
   51.1671  153.3113   29.6635 H   0  0  0  0  0  0  0  0  0  0  0  0
   51.1481  151.4218   28.2343 H   0  0  0  0  0  0  0  0  0  0  0  0
   50.7858  152.8278   27.1766 H   0  0  0  0  0  0  0  0  0  0  0  0
   52.4298  152.1039   27.1766 H   0  0  0  0  0  0  0  0  0  0  0  0
  1  2  1  0
  2  3  1  0
  3  4  1  0
  4  5  2  0
  5  6  1  0
  6  7  2  0
  7  8  1  0
  8  9  1  0
  9 10  1  0
 10 11  2  0
 11 12  1  0
 12 13  2  0
 13 14  1  0
 14 15  1  0
 14 16  2  0
 16 17  1  0
 17 18  2  0
 17 19  1  0
 19 20  1  0
  7 21  1  0
 21 22  2  0
 22 23  1  0
 23 24  1  0
 22  4  1  0
 19  8  2  0
 16 10  1  0
  1 25  1  0
  1 26  1  0
  1 27  1  0
  2 28  1  0
  2 29  1  0
  3 30  1  0
  3 31  1  0
  5 32  1  0
  6 33  1  0
 11 34  1  0
 12 35  1  0
 13 36  1  0
 15 37  1  0
 20 38  1  0
 21 39  1  0
 23 40  1  0
 23 41  1  0
 24 42  1  0
 24 43  1  0
 24 44  1  0
M  END
>  <meeko>  (7) 
{"is_sidechain": [false], "free_energy": -8.954, "intermolecular_energy": -11.984, "internal_energy": 0.221}

$$$$
cand_053_out
     RDKit          3D

 44 46  0  0  0  0  0  0  0  0999 V2000
   47.5380  160.1180   31.3860 C   0  0  0  0  0  0  0  0  0  0  0  0
   48.0500  158.9300   30.5860 C   0  0  0  0  0  0  0  0  0  0  0  0
   49.2890  158.3130   31.2370 C   0  0  0  0  0  0  0  0  0  0  0  0
   50.1200  157.5370   30.2370 C   0  0  0  0  0  0  0  0  0  0  0  0
   49.6310  156.2940   29.7960 C   0  0  0  0  0  0  0  0  0  0  0  0
   50.3380  155.5310   28.8640 C   0  0  0  0  0  0  0  0  0  0  0  0
   51.5490  155.9890   28.3380 C   0  0  0  0  0  0  0  0  0  0  0  0
   52.2980  155.1520   27.3770 C   0  0  0  0  0  0  0  0  0  0  0  0
   51.9600  153.8060   27.4560 O   0  0  0  0  0  0  0  0  0  0  0  0
   52.5820  152.9150   26.6180 C   0  0  0  0  0  0  0  0  0  0  0  0
   52.2240  151.5720   26.7430 C   0  0  0  0  0  0  0  0  0  0  0  0
   52.8180  150.6130   25.9190 C   0  0  0  0  0  0  0  0  0  0  0  0
   53.7690  150.9980   24.9710 C   0  0  0  0  0  0  0  0  0  0  0  0
   54.1240  152.3380   24.8490 C   0  0  0  0  0  0  0  0  0  0  0  0
   55.0610  152.6450   23.9010 O   0  0  0  0  0  0  0  0  0  0  0  0
   53.5300  153.2970   25.6740 C   0  0  0  0  0  0  0  0  0  0  0  0
   53.8750  154.7160   25.5790 C   0  0  0  0  0  0  0  0  0  0  0  0
   54.6970  155.1330   24.7650 O   0  0  0  0  0  0  0  0  0  0  0  0
   53.1940  155.6500   26.5050 C   0  0  0  0  0  0  0  0  0  0  0  0
   53.5190  156.9910   26.3970 O   0  0  0  0  0  0  0  0  0  0  0  0
   52.0390  157.2250   28.7800 C   0  0  0  0  0  0  0  0  0  0  0  0
   51.3370  158.0150   29.7140 C   0  0  0  0  0  0  0  0  0  0  0  0
   51.9510  159.3330   30.1300 C   0  0  0  0  0  0  0  0  0  0  0  0
   51.0260  160.5070   29.8470 C   0  0  0  0  0  0  0  0  0  0  0  0
   47.6305  159.9035   32.4609 H   0  0  0  0  0  0  0  0  0  0  0  0
   48.1314  161.0103   31.1378 H   0  0  0  0  0  0  0  0  0  0  0  0
   46.4818  160.2994   31.1378 H   0  0  0  0  0  0  0  0  0  0  0  0
   47.2583  158.1684   30.5294 H   0  0  0  0  0  0  0  0  0  0  0  0
   48.3251  159.2815   29.5806 H   0  0  0  0  0  0  0  0  0  0  0  0
   49.9053  159.1178   31.6642 H   0  0  0  0  0  0  0  0  0  0  0  0
   48.9539  157.6154   32.0188 H   0  0  0  0  0  0  0  0  0  0  0  0
   48.6764  155.9168   30.1915 H   0  0  0  0  0  0  0  0  0  0  0  0
   49.9373  154.5590   28.5405 H   0  0  0  0  0  0  0  0  0  0  0  0
   51.4750  151.2689   27.4894 H   0  0  0  0  0  0  0  0  0  0  0  0
   52.5367  149.5541   26.0167 H   0  0  0  0  0  0  0  0  0  0  0  0
   54.2366  150.2430   24.3219 H   0  0  0  0  0  0  0  0  0  0  0  0
   55.3680  151.9820   23.3140 H   0  0  0  0  0  0  0  0  0  0  0  0
   54.4090  157.2660   26.4880 H   0  0  0  0  0  0  0  0  0  0  0  0
   52.9994  157.5900   28.3870 H   0  0  0  0  0  0  0  0  0  0  0  0
   52.1641  159.3008   31.2087 H   0  0  0  0  0  0  0  0  0  0  0  0
   52.8722  159.4779   29.5466 H   0  0  0  0  0  0  0  0  0  0  0  0
   50.6836  160.9415   30.7978 H   0  0  0  0  0  0  0  0  0  0  0  0
   51.5682  161.2701   29.2693 H   0  0  0  0  0  0  0  0  0  0  0  0
   50.1573  160.1584   29.2693 H   0  0  0  0  0  0  0  0  0  0  0  0
  1  2  1  0
  2  3  1  0
  3  4  1  0
  4  5  2  0
  5  6  1  0
  6  7  2  0
  7  8  1  0
  8  9  1  0
  9 10  1  0
 10 11  2  0
 11 12  1  0
 12 13  2  0
 13 14  1  0
 14 15  1  0
 14 16  2  0
 16 17  1  0
 17 18  2  0
 17 19  1  0
 19 20  1  0
  7 21  1  0
 21 22  2  0
 22 23  1  0
 23 24  1  0
 22  4  1  0
 19  8  2  0
 16 10  1  0
  1 25  1  0
  1 26  1  0
  1 27  1  0
  2 28  1  0
  2 29  1  0
  3 30  1  0
  3 31  1  0
  5 32  1  0
  6 33  1  0
 11 34  1  0
 12 35  1  0
 13 36  1  0
 15 37  1  0
 20 38  1  0
 21 39  1  0
 23 40  1  0
 23 41  1  0
 24 42  1  0
 24 43  1  0
 24 44  1  0
M  END
>  <meeko>  (8) 
{"is_sidechain": [false], "free_energy": -8.804, "intermolecular_energy": -11.742, "internal_energy": 0.173}

$$$$
cand_053_out
     RDKit          3D

 44 46  0  0  0  0  0  0  0  0999 V2000
   54.1480  153.2760   23.5640 C   0  0  0  0  0  0  0  0  0  0  0  0
   53.4800  154.2550   24.5160 C   0  0  0  0  0  0  0  0  0  0  0  0
   53.7580  153.8900   25.9760 C   0  0  0  0  0  0  0  0  0  0  0  0
   53.0470  154.8220   26.9320 C   0  0  0  0  0  0  0  0  0  0  0  0
   53.1760  156.2070   26.7240 C   0  0  0  0  0  0  0  0  0  0  0  0
   52.5360  157.1250   27.5590 C   0  0  0  0  0  0  0  0  0  0  0  0
   51.7410  156.6890   28.6230 C   0  0  0  0  0  0  0  0  0  0  0  0
   51.0970  157.6760   29.5150 C   0  0  0  0  0  0  0  0  0  0  0  0
   51.9100  158.7720   29.7840 O   0  0  0  0  0  0  0  0  0  0  0  0
   51.4360  159.7660   30.6010 C   0  0  0  0  0  0  0  0  0  0  0  0
   52.2930  160.8380   30.8560 C   0  0  0  0  0  0  0  0  0  0  0  0
   51.8710  161.8860   31.6790 C   0  0  0  0  0  0  0  0  0  0  0  0
   50.5940  161.8610   32.2440 C   0  0  0  0  0  0  0  0  0  0  0  0
   49.7430  160.7890   31.9870 C   0  0  0  0  0  0  0  0  0  0  0  0
   48.5070  160.8290   32.5730 O   0  0  0  0  0  0  0  0  0  0  0  0
   50.1650  159.7410   31.1650 C   0  0  0  0  0  0  0  0  0  0  0  0
   49.3020  158.5970   30.8700 C   0  0  0  0  0  0  0  0  0  0  0  0
   48.1630  158.5080   31.3240 O   0  0  0  0  0  0  0  0  0  0  0  0
   49.8480  157.5350   29.9940 C   0  0  0  0  0  0  0  0  0  0  0  0
   49.0170  156.4650   29.7110 O   0  0  0  0  0  0  0  0  0  0  0  0
   51.6140  155.3090   28.8340 C   0  0  0  0  0  0  0  0  0  0  0  0
   52.2450  154.3650   27.9970 C   0  0  0  0  0  0  0  0  0  0  0  0
   52.0500  152.8990   28.3100 C   0  0  0  0  0  0  0  0  0  0  0  0
   51.8410  152.0710   27.0510 C   0  0  0  0  0  0  0  0  0  0  0  0
   54.6752  152.5034   24.1429 H   0  0  0  0  0  0  0  0  0  0  0  0
   53.3842  152.8019   22.9301 H   0  0  0  0  0  0  0  0  0  0  0  0
   54.8680  153.8143   22.9301 H   0  0  0  0  0  0  0  0  0  0  0  0
   53.8667  155.2659   24.3197 H   0  0  0  0  0  0  0  0  0  0  0  0
   52.3935  154.2143   24.3492 H   0  0  0  0  0  0  0  0  0  0  0  0
   53.4127  152.8616   26.1581 H   0  0  0  0  0  0  0  0  0  0  0  0
   54.8402  153.9800   26.1514 H   0  0  0  0  0  0  0  0  0  0  0  0
   53.7916  156.5733   25.8892 H   0  0  0  0  0  0  0  0  0  0  0  0
   52.6587  158.2030   27.3776 H   0  0  0  0  0  0  0  0  0  0  0  0
   53.2984  160.8579   30.4102 H   0  0  0  0  0  0  0  0  0  0  0  0
   52.5452  162.7311   31.8818 H   0  0  0  0  0  0  0  0  0  0  0  0
   50.2611  162.6863   32.8906 H   0  0  0  0  0  0  0  0  0  0  0  0
   47.7690  161.1420   32.0880 H   0  0  0  0  0  0  0  0  0  0  0  0
   48.3300  156.5600   29.0820 H   0  0  0  0  0  0  0  0  0  0  0  0
   51.0044  154.9517   29.6770 H   0  0  0  0  0  0  0  0  0  0  0  0
   52.9412  152.5265   28.8363 H   0  0  0  0  0  0  0  0  0  0  0  0
   51.1497  152.8015   28.9345 H   0  0  0  0  0  0  0  0  0  0  0  0
   51.5806  151.0393   27.3297 H   0  0  0  0  0  0  0  0  0  0  0  0
   51.0248  152.5073   26.4565 H   0  0  0  0  0  0  0  0  0  0  0  0
   52.7665  152.0677   26.4565 H   0  0  0  0  0  0  0  0  0  0  0  0
  1  2  1  0
  2  3  1  0
  3  4  1  0
  4  5  2  0
  5  6  1  0
  6  7  2  0
  7  8  1  0
  8  9  1  0
  9 10  1  0
 10 11  2  0
 11 12  1  0
 12 13  2  0
 13 14  1  0
 14 15  1  0
 14 16  2  0
 16 17  1  0
 17 18  2  0
 17 19  1  0
 19 20  1  0
  7 21  1  0
 21 22  2  0
 22 23  1  0
 23 24  1  0
 22  4  1  0
 19  8  2  0
 16 10  1  0
  1 25  1  0
  1 26  1  0
  1 27  1  0
  2 28  1  0
  2 29  1  0
  3 30  1  0
  3 31  1  0
  5 32  1  0
  6 33  1  0
 11 34  1  0
 12 35  1  0
 13 36  1  0
 15 37  1  0
 20 38  1  0
 21 39  1  0
 23 40  1  0
 23 41  1  0
 24 42  1  0
 24 43  1  0
 24 44  1  0
M  END
>  <meeko>  (9) 
{"is_sidechain": [false], "free_energy": -8.426, "intermolecular_energy": -11.389, "internal_energy": 0.308}

$$$$
