cand_016_out
     RDKit          3D

 35 37  0  0  0  0  0  0  0  0999 V2000
   48.2060  158.8760   31.2690 C   0  0  0  0  0  0  0  0  0  0  0  0
   49.6170  158.8680   30.7450 C   0  0  0  0  0  0  0  0  0  0  0  0
   50.0810  157.7290   30.0600 C   0  0  0  0  0  0  0  0  0  0  0  0
   51.3810  157.6640   29.5390 C   0  0  0  0  0  0  0  0  0  0  0  0
   51.8640  156.4770   28.8010 C   0  0  0  0  0  0  0  0  0  0  0  0
   52.4540  156.8000   27.5840 O   0  0  0  0  0  0  0  0  0  0  0  0
   52.9460  155.7910   26.7980 C   0  0  0  0  0  0  0  0  0  0  0  0
   53.5150  156.1590   25.5780 C   0  0  0  0  0  0  0  0  0  0  0  0
   54.0360  155.1790   24.7280 C   0  0  0  0  0  0  0  0  0  0  0  0
   53.9890  153.8350   25.0990 C   0  0  0  0  0  0  0  0  0  0  0  0
   53.4210  153.4700   26.3170 C   0  0  0  0  0  0  0  0  0  0  0  0
   53.4080  152.1360   26.6180 O   0  0  0  0  0  0  0  0  0  0  0  0
   52.8990  154.4500   27.1660 C   0  0  0  0  0  0  0  0  0  0  0  0
   52.2930  154.1100   28.4540 C   0  0  0  0  0  0  0  0  0  0  0  0
   52.2200  152.9490   28.8550 O   0  0  0  0  0  0  0  0  0  0  0  0
   51.7610  155.2220   29.2760 C   0  0  0  0  0  0  0  0  0  0  0  0
   51.2030  154.8910   30.4970 O   0  0  0  0  0  0  0  0  0  0  0  0
   52.2160  158.7750   29.6950 C   0  0  0  0  0  0  0  0  0  0  0  0
   51.7690  159.9160   30.3640 C   0  0  0  0  0  0  0  0  0  0  0  0
   50.4680  159.9830   30.8900 C   0  0  0  0  0  0  0  0  0  0  0  0
   50.0280  161.2310   31.6210 C   0  0  0  0  0  0  0  0  0  0  0  0
   48.8820  161.7770   31.1210 F   0  0  0  0  0  0  0  0  0  0  0  0
   49.7820  161.0180   32.9430 F   0  0  0  0  0  0  0  0  0  0  0  0
   48.2233  158.8759   32.3689 H   0  0  0  0  0  0  0  0  0  0  0  0
   47.6869  159.7771   30.9105 H   0  0  0  0  0  0  0  0  0  0  0  0
   47.6767  157.9809   30.9105 H   0  0  0  0  0  0  0  0  0  0  0  0
   49.4073  156.8692   29.9304 H   0  0  0  0  0  0  0  0  0  0  0  0
   53.5535  157.2187   25.2856 H   0  0  0  0  0  0  0  0  0  0  0  0
   54.4835  155.4679   23.7656 H   0  0  0  0  0  0  0  0  0  0  0  0
   54.4001  153.0645   24.4302 H   0  0  0  0  0  0  0  0  0  0  0  0
   53.9500  151.5410   26.1370 H   0  0  0  0  0  0  0  0  0  0  0  0
   50.8870  154.0220   30.6470 H   0  0  0  0  0  0  0  0  0  0  0  0
   53.2368  158.7496   29.2859 H   0  0  0  0  0  0  0  0  0  0  0  0
   52.4456  160.7754   30.4810 H   0  0  0  0  0  0  0  0  0  0  0  0
   50.8809  161.9111   31.4795 H   0  0  0  0  0  0  0  0  0  0  0  0
  1  2  1  0
  2  3  2  0
  3  4  1  0
  4  5  1  0
  5  6  1  0
  6  7  1  0
  7  8  2  0
  8  9  1  0
  9 10  2  0
 10 11  1  0
 11 12  1  0
 11 13  2  0
 13 14  1  0
 14 15  2  0
 14 16  1  0
 16 17  1  0
  4 18  2  0
 18 19  1  0
 19 20  2  0
 20 21  1  0
 21 22  1  0
 21 23  1  0
 20  2  1  0
 16  5  2  0
 13  7  1  0
  1 24  1  0
  1 25  1  0
  1 26  1  0
  3 27  1  0
  8 28  1  0
  9 29  1  0
 10 30  1  0
 12 31  1  0
 17 32  1  0
 18 33  1  0
 19 34  1  0
 21 35  1  0
M  END
>  <meeko>  (1) 
{"is_sidechain": [false], "free_energy": -11.825, "intermolecular_energy": -13.899, "internal_energy": -0.1}

$$$$
cand_016_out
     RDKit          3D

 35 37  0  0  0  0  0  0  0  0999 V2000
   53.5650  156.1640   25.8040 C   0  0  0  0  0  0  0  0  0  0  0  0
   52.7200  155.9540   27.0320 C   0  0  0  0  0  0  0  0  0  0  0  0
   52.3610  157.0710   27.8090 C   0  0  0  0  0  0  0  0  0  0  0  0
   51.5680  156.9420   28.9580 C   0  0  0  0  0  0  0  0  0  0  0  0
   51.1730  158.1160   29.7650 C   0  0  0  0  0  0  0  0  0  0  0  0
   49.8540  158.0530   30.2010 O   0  0  0  0  0  0  0  0  0  0  0  0
   49.3580  159.0800   30.9620 C   0  0  0  0  0  0  0  0  0  0  0  0
   48.0250  158.9840   31.3640 C   0  0  0  0  0  0  0  0  0  0  0  0
   47.4570  159.9960   32.1420 C   0  0  0  0  0  0  0  0  0  0  0  0
   48.2210  161.1020   32.5170 C   0  0  0  0  0  0  0  0  0  0  0  0
   49.5510  161.1960   32.1140 C   0  0  0  0  0  0  0  0  0  0  0  0
   50.2410  162.3060   32.5170 O   0  0  0  0  0  0  0  0  0  0  0  0
   50.1180  160.1830   31.3350 C   0  0  0  0  0  0  0  0  0  0  0  0
   51.5120  160.2440   30.8910 C   0  0  0  0  0  0  0  0  0  0  0  0
   52.2500  161.1810   31.1860 O   0  0  0  0  0  0  0  0  0  0  0  0
   52.0150  159.1240   30.0620 C   0  0  0  0  0  0  0  0  0  0  0  0
   53.3350  159.1830   29.6590 O   0  0  0  0  0  0  0  0  0  0  0  0
   51.1130  155.6680   29.3130 C   0  0  0  0  0  0  0  0  0  0  0  0
   51.4520  154.5500   28.5470 C   0  0  0  0  0  0  0  0  0  0  0  0
   52.2500  154.6760   27.3980 C   0  0  0  0  0  0  0  0  0  0  0  0
   52.6070  153.4390   26.6050 C   0  0  0  0  0  0  0  0  0  0  0  0
   53.7330  152.8120   27.0550 F   0  0  0  0  0  0  0  0  0  0  0  0
   51.6310  152.4890   26.6260 F   0  0  0  0  0  0  0  0  0  0  0  0
   54.5918  156.4192   26.1048 H   0  0  0  0  0  0  0  0  0  0  0  0
   53.5769  155.2415   25.2050 H   0  0  0  0  0  0  0  0  0  0  0  0
   53.1437  156.9848   25.2050 H   0  0  0  0  0  0  0  0  0  0  0  0
   52.7110  158.0694   27.5076 H   0  0  0  0  0  0  0  0  0  0  0  0
   47.4222  158.1125   31.0687 H   0  0  0  0  0  0  0  0  0  0  0  0
   46.4064  159.9209   32.4593 H   0  0  0  0  0  0  0  0  0  0  0  0
   47.7735  161.8983   33.1299 H   0  0  0  0  0  0  0  0  0  0  0  0
   50.1940  162.5890   33.4090 H   0  0  0  0  0  0  0  0  0  0  0  0
   53.5430  159.3260   28.7560 H   0  0  0  0  0  0  0  0  0  0  0  0
   50.4813  155.5450   30.2051 H   0  0  0  0  0  0  0  0  0  0  0  0
   51.0886  153.5564   28.8481 H   0  0  0  0  0  0  0  0  0  0  0  0
   52.7562  153.8345   25.5895 H   0  0  0  0  0  0  0  0  0  0  0  0
  1  2  1  0
  2  3  2  0
  3  4  1  0
  4  5  1  0
  5  6  1  0
  6  7  1  0
  7  8  2  0
  8  9  1  0
  9 10  2  0
 10 11  1  0
 11 12  1  0
 11 13  2  0
 13 14  1  0
 14 15  2  0
 14 16  1  0
 16 17  1  0
  4 18  2  0
 18 19  1  0
 19 20  2  0
 20 21  1  0
 21 22  1  0
 21 23  1  0
 20  2  1  0
 16  5  2  0
 13  7  1  0
  1 24  1  0
  1 25  1  0
  1 26  1  0
  3 27  1  0
  8 28  1  0
  9 29  1  0
 10 30  1  0
 12 31  1  0
 17 32  1  0
 18 33  1  0
 19 34  1  0
 21 35  1  0
M  END
>  <meeko>  (2) 
{"is_sidechain": [false], "free_energy": -11.096, "intermolecular_energy": -12.964, "internal_energy": -0.179}

$$$$
cand_016_out
     RDKit          3D

 35 37  0  0  0  0  0  0  0  0999 V2000
   52.2020  159.6530   30.1330 C   0  0  0  0  0  0  0  0  0  0  0  0
   51.4940  158.3750   29.7730 C   0  0  0  0  0  0  0  0  0  0  0  0
   52.1350  157.4600   28.9170 C   0  0  0  0  0  0  0  0  0  0  0  0
   51.5320  156.2480   28.5520 C   0  0  0  0  0  0  0  0  0  0  0  0
   52.2120  155.2760   27.6690 C   0  0  0  0  0  0  0  0  0  0  0  0
   52.9490  155.8850   26.6600 O   0  0  0  0  0  0  0  0  0  0  0  0
   53.6310  155.0970   25.7700 C   0  0  0  0  0  0  0  0  0  0  0  0
   54.3450  155.7500   24.7630 C   0  0  0  0  0  0  0  0  0  0  0  0
   55.0620  155.0060   23.8230 C   0  0  0  0  0  0  0  0  0  0  0  0
   55.0660  153.6120   23.8900 C   0  0  0  0  0  0  0  0  0  0  0  0
   54.3530  152.9630   24.8940 C   0  0  0  0  0  0  0  0  0  0  0  0
   54.4000  151.5960   24.9010 O   0  0  0  0  0  0  0  0  0  0  0  0
   53.6350  153.7070   25.8340 C   0  0  0  0  0  0  0  0  0  0  0  0
   52.8720  153.0650   26.9050 C   0  0  0  0  0  0  0  0  0  0  0  0
   52.8320  151.8430   27.0350 O   0  0  0  0  0  0  0  0  0  0  0  0
   52.1380  153.9430   27.8450 C   0  0  0  0  0  0  0  0  0  0  0  0
   51.4320  153.3280   28.8610 O   0  0  0  0  0  0  0  0  0  0  0  0
   50.2720  155.9470   29.0790 C   0  0  0  0  0  0  0  0  0  0  0  0
   49.6260  156.8390   29.9380 C   0  0  0  0  0  0  0  0  0  0  0  0
   50.2260  158.0560   30.3020 C   0  0  0  0  0  0  0  0  0  0  0  0
   49.4860  159.0000   31.2210 C   0  0  0  0  0  0  0  0  0  0  0  0
   49.0120  160.1130   30.5900 F   0  0  0  0  0  0  0  0  0  0  0  0
   48.4010  158.4300   31.8140 F   0  0  0  0  0  0  0  0  0  0  0  0
   52.2543  159.7474   31.2277 H   0  0  0  0  0  0  0  0  0  0  0  0
   53.2203  159.6377   29.7172 H   0  0  0  0  0  0  0  0  0  0  0  0
   51.6490  160.5082   29.7172 H   0  0  0  0  0  0  0  0  0  0  0  0
   53.1338  157.7017   28.5246 H   0  0  0  0  0  0  0  0  0  0  0  0
   54.3428  156.8487   24.7101 H   0  0  0  0  0  0  0  0  0  0  0  0
   55.6241  155.5194   23.0290 H   0  0  0  0  0  0  0  0  0  0  0  0
   55.6320  153.0268   23.1502 H   0  0  0  0  0  0  0  0  0  0  0  0
   53.6620  151.1020   25.2010 H   0  0  0  0  0  0  0  0  0  0  0  0
   51.6500  152.4540   29.1210 H   0  0  0  0  0  0  0  0  0  0  0  0
   49.7843  154.9973   28.8141 H   0  0  0  0  0  0  0  0  0  0  0  0
   48.6324  156.5847   30.3355 H   0  0  0  0  0  0  0  0  0  0  0  0
   50.2520  159.2664   31.9642 H   0  0  0  0  0  0  0  0  0  0  0  0
  1  2  1  0
  2  3  2  0
  3  4  1  0
  4  5  1  0
  5  6  1  0
  6  7  1  0
  7  8  2  0
  8  9  1  0
  9 10  2  0
 10 11  1  0
 11 12  1  0
 11 13  2  0
 13 14  1  0
 14 15  2  0
 14 16  1  0
 16 17  1  0
  4 18  2  0
 18 19  1  0
 19 20  2  0
 20 21  1  0
 21 22  1  0
 21 23  1  0
 20  2  1  0
 16  5  2  0
 13  7  1  0
  1 24  1  0
  1 25  1  0
  1 26  1  0
  3 27  1  0
  8 28  1  0
  9 29  1  0
 10 30  1  0
 12 31  1  0
 17 32  1  0
 18 33  1  0
 19 34  1  0
 21 35  1  0
M  END
>  <meeko>  (3) 
{"is_sidechain": [false], "free_energy": -9.997, "intermolecular_energy": -11.796, "internal_energy": -0.055}

$$$$
cand_016_out
     RDKit          3D

 35 37  0  0  0  0  0  0  0  0999 V2000
   53.7430  156.3190   25.5480 C   0  0  0  0  0  0  0  0  0  0  0  0
   52.9890  155.8740   26.7720 C   0  0  0  0  0  0  0  0  0  0  0  0
   52.3530  156.8440   27.5690 C   0  0  0  0  0  0  0  0  0  0  0  0
   51.6270  156.4930   28.7160 C   0  0  0  0  0  0  0  0  0  0  0  0
   50.9410  157.5080   29.5430 C   0  0  0  0  0  0  0  0  0  0  0  0
   51.7490  158.5980   29.8420 O   0  0  0  0  0  0  0  0  0  0  0  0
   51.2340  159.6150   30.6040 C   0  0  0  0  0  0  0  0  0  0  0  0
   52.0840  160.6830   30.8940 C   0  0  0  0  0  0  0  0  0  0  0  0
   51.6230  161.7520   31.6650 C   0  0  0  0  0  0  0  0  0  0  0  0
   50.3120  161.7540   32.1450 C   0  0  0  0  0  0  0  0  0  0  0  0
   49.4650  160.6880   31.8540 C   0  0  0  0  0  0  0  0  0  0  0  0
   48.1940  160.7550   32.3550 O   0  0  0  0  0  0  0  0  0  0  0  0
   49.9280  159.6180   31.0830 C   0  0  0  0  0  0  0  0  0  0  0  0
   49.0700  158.4780   30.7560 C   0  0  0  0  0  0  0  0  0  0  0  0
   47.9030  158.4090   31.1340 O   0  0  0  0  0  0  0  0  0  0  0  0
   49.6590  157.3910   29.9400 C   0  0  0  0  0  0  0  0  0  0  0  0
   48.8380  156.3250   29.6240 O   0  0  0  0  0  0  0  0  0  0  0  0
   51.5260  155.1380   29.0490 C   0  0  0  0  0  0  0  0  0  0  0  0
   52.1430  154.1610   28.2640 C   0  0  0  0  0  0  0  0  0  0  0  0
   52.8750  154.5120   27.1170 C   0  0  0  0  0  0  0  0  0  0  0  0
   53.5410  153.4250   26.3040 C   0  0  0  0  0  0  0  0  0  0  0  0
   53.4720  152.1920   26.8860 F   0  0  0  0  0  0  0  0  0  0  0  0
   52.9950  153.2720   25.0660 F   0  0  0  0  0  0  0  0  0  0  0  0
   54.6531  156.8562   25.8531 H   0  0  0  0  0  0  0  0  0  0  0  0
   54.0200  155.4396   24.9481 H   0  0  0  0  0  0  0  0  0  0  0  0
   53.1070  156.9865   24.9481 H   0  0  0  0  0  0  0  0  0  0  0  0
   52.4273  157.9041   27.2850 H   0  0  0  0  0  0  0  0  0  0  0  0
   53.1168  160.6827   30.5154 H   0  0  0  0  0  0  0  0  0  0  0  0
   52.2934  162.5934   31.8944 H   0  0  0  0  0  0  0  0  0  0  0  0
   49.9489  162.5964   32.7521 H   0  0  0  0  0  0  0  0  0  0  0  0
   47.6680  159.9810   32.4040 H   0  0  0  0  0  0  0  0  0  0  0  0
   48.9750  155.8470   28.8290 H   0  0  0  0  0  0  0  0  0  0  0  0
   50.9540  154.8384   29.9395 H   0  0  0  0  0  0  0  0  0  0  0  0
   52.0546  153.1019   28.5478 H   0  0  0  0  0  0  0  0  0  0  0  0
   54.5830  153.7715   26.2399 H   0  0  0  0  0  0  0  0  0  0  0  0
  1  2  1  0
  2  3  2  0
  3  4  1  0
  4  5  1  0
  5  6  1  0
  6  7  1  0
  7  8  2  0
  8  9  1  0
  9 10  2  0
 10 11  1  0
 11 12  1  0
 11 13  2  0
 13 14  1  0
 14 15  2  0
 14 16  1  0
 16 17  1  0
  4 18  2  0
 18 19  1  0
 19 20  2  0
 20 21  1  0
 21 22  1  0
 21 23  1  0
 20  2  1  0
 16  5  2  0
 13  7  1  0
  1 24  1  0
  1 25  1  0
  1 26  1  0
  3 27  1  0
  8 28  1  0
  9 29  1  0
 10 30  1  0
 12 31  1  0
 17 32  1  0
 18 33  1  0
 19 34  1  0
 21 35  1  0
M  END
>  <meeko>  (4) 
{"is_sidechain": [false], "free_energy": -9.04, "intermolecular_energy": -10.575, "internal_energy": -0.151}

$$$$
