cand_022_out
     RDKit          3D

 41 43  0  0  0  0  0  0  0  0999 V2000
   55.3280  154.0100   24.4450 C   0  0  0  0  0  0  0  0  0  0  0  0
   54.4520  155.1920   24.8280 C   0  0  0  0  0  0  0  0  0  0  0  0
   52.9840  154.7800   24.9580 C   0  0  0  0  0  0  0  0  0  0  0  0
   52.5580  154.6760   26.4060 C   0  0  0  0  0  0  0  0  0  0  0  0
   52.2660  155.8670   27.1020 C   0  0  0  0  0  0  0  0  0  0  0  0
   51.8860  155.8590   28.4510 C   0  0  0  0  0  0  0  0  0  0  0  0
   51.5540  157.1040   29.1750 C   0  0  0  0  0  0  0  0  0  0  0  0
   50.2590  157.1060   29.6810 O   0  0  0  0  0  0  0  0  0  0  0  0
   49.8210  158.2050   30.3760 C   0  0  0  0  0  0  0  0  0  0  0  0
   48.5090  158.1700   30.8530 C   0  0  0  0  0  0  0  0  0  0  0  0
   48.0010  159.2550   31.5700 C   0  0  0  0  0  0  0  0  0  0  0  0
   48.8020  160.3730   31.8110 C   0  0  0  0  0  0  0  0  0  0  0  0
   50.1100  160.4040   31.3350 C   0  0  0  0  0  0  0  0  0  0  0  0
   50.8400  161.5290   31.6060 O   0  0  0  0  0  0  0  0  0  0  0  0
   50.6190  159.3180   30.6160 C   0  0  0  0  0  0  0  0  0  0  0  0
   51.9880  159.3110   30.0970 C   0  0  0  0  0  0  0  0  0  0  0  0
   52.7550  160.2550   30.2740 O   0  0  0  0  0  0  0  0  0  0  0  0
   52.4260  158.1160   29.3420 C   0  0  0  0  0  0  0  0  0  0  0  0
   53.7260  158.1140   28.8680 O   0  0  0  0  0  0  0  0  0  0  0  0
   51.7810  154.6250   29.1020 C   0  0  0  0  0  0  0  0  0  0  0  0
   52.0720  153.4360   28.4290 C   0  0  0  0  0  0  0  0  0  0  0  0
   52.4700  153.4450   27.0840 C   0  0  0  0  0  0  0  0  0  0  0  0
   52.7650  152.1370   26.4030 C   0  0  0  0  0  0  0  0  0  0  0  0
   55.6948  153.5150   25.3563 H   0  0  0  0  0  0  0  0  0  0  0  0
   54.7399  153.2951   23.8508 H   0  0  0  0  0  0  0  0  0  0  0  0
   56.1831  154.3646   23.8508 H   0  0  0  0  0  0  0  0  0  0  0  0
   54.7970  155.5959   25.7912 H   0  0  0  0  0  0  0  0  0  0  0  0
   54.5296  155.9514   24.0360 H   0  0  0  0  0  0  0  0  0  0  0  0
   52.3571  155.5310   24.4551 H   0  0  0  0  0  0  0  0  0  0  0  0
   52.8632  153.7904   24.4931 H   0  0  0  0  0  0  0  0  0  0  0  0
   52.3384  156.8282   26.5720 H   0  0  0  0  0  0  0  0  0  0  0  0
   47.8772  157.2896   30.6643 H   0  0  0  0  0  0  0  0  0  0  0  0
   46.9675  159.2290   31.9458 H   0  0  0  0  0  0  0  0  0  0  0  0
   48.4005  161.2274   32.3757 H   0  0  0  0  0  0  0  0  0  0  0  0
   51.3110  161.9580   30.9190 H   0  0  0  0  0  0  0  0  0  0  0  0
   53.8890  158.0250   27.9490 H   0  0  0  0  0  0  0  0  0  0  0  0
   51.4658  154.5907   30.1553 H   0  0  0  0  0  0  0  0  0  0  0  0
   51.9877  152.4776   28.9622 H   0  0  0  0  0  0  0  0  0  0  0  0
   52.9402  151.3600   27.1616 H   0  0  0  0  0  0  0  0  0  0  0  0
   51.9091  151.8495   25.7746 H   0  0  0  0  0  0  0  0  0  0  0  0
   53.6614  152.2447   25.7746 H   0  0  0  0  0  0  0  0  0  0  0  0
  1  2  1  0
  2  3  1  0
  3  4  1  0
  4  5  2  0
  5  6  1  0
  6  7  1  0
  7  8  1  0
  8  9  1  0
  9 10  2  0
 10 11  1  0
 11 12  2  0
 12 13  1  0
 13 14  1  0
 13 15  2  0
 15 16  1  0
 16 17  2  0
 16 18  1  0
 18 19  1  0
  6 20  2  0
 20 21  1  0
 21 22  2  0
 22 23  1  0
 22  4  1  0
 18  7  2  0
 15  9  1  0
  1 24  1  0
  1 25  1  0
  1 26  1  0
  2 27  1  0
  2 28  1  0
  3 29  1  0
  3 30  1  0
  5 31  1  0
 10 32  1  0
 11 33  1  0
 12 34  1  0
 14 35  1  0
 19 36  1  0
 20 37  1  0
 21 38  1  0
 23 39  1  0
 23 40  1  0
 23 41  1  0
M  END
>  <meeko>  (1) 
{"is_sidechain": [false], "free_energy": -9.992, "intermolecular_energy": -12.329, "internal_energy": -0.554}

$$$$
cand_022_out
     RDKit          3D

 41 43  0  0  0  0  0  0  0  0999 V2000
   46.6710  160.0670   31.5480 C   0  0  0  0  0  0  0  0  0  0  0  0
   47.6180  159.3470   30.6020 C   0  0  0  0  0  0  0  0  0  0  0  0
   48.6650  158.5370   31.3700 C   0  0  0  0  0  0  0  0  0  0  0  0
   50.0030  158.5380   30.6620 C   0  0  0  0  0  0  0  0  0  0  0  0
   50.3870  157.3770   29.9610 C   0  0  0  0  0  0  0  0  0  0  0  0
   51.6190  157.2890   29.2970 C   0  0  0  0  0  0  0  0  0  0  0  0
   52.0110  156.0840   28.5390 C   0  0  0  0  0  0  0  0  0  0  0  0
   52.5580  156.3800   27.2960 O   0  0  0  0  0  0  0  0  0  0  0  0
   52.9660  155.3500   26.4880 C   0  0  0  0  0  0  0  0  0  0  0  0
   53.4960  155.6940   25.2430 C   0  0  0  0  0  0  0  0  0  0  0  0
   53.9310  154.6930   24.3710 C   0  0  0  0  0  0  0  0  0  0  0  0
   53.8390  153.3500   24.7440 C   0  0  0  0  0  0  0  0  0  0  0  0
   53.3110  153.0110   25.9870 C   0  0  0  0  0  0  0  0  0  0  0  0
   53.2490  151.6780   26.2890 O   0  0  0  0  0  0  0  0  0  0  0  0
   52.8740  154.0130   26.8590 C   0  0  0  0  0  0  0  0  0  0  0  0
   52.3120  153.6990   28.1740 C   0  0  0  0  0  0  0  0  0  0  0  0
   52.2040  152.5420   28.5750 O   0  0  0  0  0  0  0  0  0  0  0  0
   51.8710  154.8330   29.0170 C   0  0  0  0  0  0  0  0  0  0  0  0
   51.3540  154.5250   30.2630 O   0  0  0  0  0  0  0  0  0  0  0  0
   52.4680  158.4000   29.3290 C   0  0  0  0  0  0  0  0  0  0  0  0
   52.1060  159.5570   30.0240 C   0  0  0  0  0  0  0  0  0  0  0  0
   50.8810  159.6380   30.7030 C   0  0  0  0  0  0  0  0  0  0  0  0
   50.5360  160.9080   31.4310 C   0  0  0  0  0  0  0  0  0  0  0  0
   46.9564  159.8500   32.5879 H   0  0  0  0  0  0  0  0  0  0  0  0
   46.7292  161.1510   31.3704 H   0  0  0  0  0  0  0  0  0  0  0  0
   45.6420  159.7211   31.3704 H   0  0  0  0  0  0  0  0  0  0  0  0
   47.0366  158.6660   29.9631 H   0  0  0  0  0  0  0  0  0  0  0  0
   48.1404  160.1009   29.9947 H   0  0  0  0  0  0  0  0  0  0  0  0
   48.7910  158.9753   32.3710 H   0  0  0  0  0  0  0  0  0  0  0  0
   48.3129  157.4970   31.4367 H   0  0  0  0  0  0  0  0  0  0  0  0
   49.7019  156.5169   29.9341 H   0  0  0  0  0  0  0  0  0  0  0  0
   53.5709  156.7514   24.9492 H   0  0  0  0  0  0  0  0  0  0  0  0
   54.3467  154.9628   23.3890 H   0  0  0  0  0  0  0  0  0  0  0  0
   54.1828  152.5623   24.0575 H   0  0  0  0  0  0  0  0  0  0  0  0
   52.4380  151.2170   26.2070 H   0  0  0  0  0  0  0  0  0  0  0  0
   51.2340  153.6300   30.5120 H   0  0  0  0  0  0  0  0  0  0  0  0
   53.4322  158.3626   28.8008 H   0  0  0  0  0  0  0  0  0  0  0  0
   52.7917  160.4170   30.0389 H   0  0  0  0  0  0  0  0  0  0  0  0
   50.5835  160.7332   32.5160 H   0  0  0  0  0  0  0  0  0  0  0  0
   51.2528  161.6953   31.1547 H   0  0  0  0  0  0  0  0  0  0  0  0
   49.5194  161.2244   31.1547 H   0  0  0  0  0  0  0  0  0  0  0  0
  1  2  1  0
  2  3  1  0
  3  4  1  0
  4  5  2  0
  5  6  1  0
  6  7  1  0
  7  8  1  0
  8  9  1  0
  9 10  2  0
 10 11  1  0
 11 12  2  0
 12 13  1  0
 13 14  1  0
 13 15  2  0
 15 16  1  0
 16 17  2  0
 16 18  1  0
 18 19  1  0
  6 20  2  0
 20 21  1  0
 21 22  2  0
 22 23  1  0
 22  4  1  0
 18  7  2  0
 15  9  1  0
  1 24  1  0
  1 25  1  0
  1 26  1  0
  2 27  1  0
  2 28  1  0
  3 29  1  0
  3 30  1  0
  5 31  1  0
 10 32  1  0
 11 33  1  0
 12 34  1  0
 14 35  1  0
 19 36  1  0
 20 37  1  0
 21 38  1  0
 23 39  1  0
 23 40  1  0
 23 41  1  0
M  END
>  <meeko>  (2) 
{"is_sidechain": [false], "free_energy": -9.873, "intermolecular_energy": -12.522, "internal_energy": -0.214}

$$$$
cand_022_out
     RDKit          3D

 41 43  0  0  0  0  0  0  0  0999 V2000
   53.8690  162.3030   31.1280 C   0  0  0  0  0  0  0  0  0  0  0  0
   52.8770  161.1880   31.4170 C   0  0  0  0  0  0  0  0  0  0  0  0
   51.7190  161.1980   30.4170 C   0  0  0  0  0  0  0  0  0  0  0  0
   51.0270  159.8540   30.3480 C   0  0  0  0  0  0  0  0  0  0  0  0
   51.6630  158.8120   29.6420 C   0  0  0  0  0  0  0  0  0  0  0  0
   51.0790  157.5440   29.5130 C   0  0  0  0  0  0  0  0  0  0  0  0
   51.7560  156.4440   28.7970 C   0  0  0  0  0  0  0  0  0  0  0  0
   52.3070  156.8460   27.5860 O   0  0  0  0  0  0  0  0  0  0  0  0
   52.9670  155.9200   26.8180 C   0  0  0  0  0  0  0  0  0  0  0  0
   53.4920  156.3640   25.6020 C   0  0  0  0  0  0  0  0  0  0  0  0
   54.1760  155.4730   24.7730 C   0  0  0  0  0  0  0  0  0  0  0  0
   54.3370  154.1400   25.1580 C   0  0  0  0  0  0  0  0  0  0  0  0
   53.8130  153.7010   26.3710 C   0  0  0  0  0  0  0  0  0  0  0  0
   54.0070  152.3840   26.6870 O   0  0  0  0  0  0  0  0  0  0  0  0
   53.1270  154.5930   27.2000 C   0  0  0  0  0  0  0  0  0  0  0  0
   52.5600  154.1710   28.4830 C   0  0  0  0  0  0  0  0  0  0  0  0
   52.6670  153.0170   28.8930 O   0  0  0  0  0  0  0  0  0  0  0  0
   51.8450  155.1910   29.2830 C   0  0  0  0  0  0  0  0  0  0  0  0
   51.3250  154.7860   30.4980 O   0  0  0  0  0  0  0  0  0  0  0  0
   49.8390  157.3220   30.1220 C   0  0  0  0  0  0  0  0  0  0  0  0
   49.1920  158.3440   30.8210 C   0  0  0  0  0  0  0  0  0  0  0  0
   49.7690  159.6180   30.9350 C   0  0  0  0  0  0  0  0  0  0  0  0
   49.0340  160.6830   31.7020 C   0  0  0  0  0  0  0  0  0  0  0  0
   54.2393  162.7192   32.0765 H   0  0  0  0  0  0  0  0  0  0  0  0
   54.7138  161.9013   30.5492 H   0  0  0  0  0  0  0  0  0  0  0  0
   53.3717  163.0953   30.5492 H   0  0  0  0  0  0  0  0  0  0  0  0
   53.3970  160.2208   31.3528 H   0  0  0  0  0  0  0  0  0  0  0  0
   52.4652  161.3436   32.4251 H   0  0  0  0  0  0  0  0  0  0  0  0
   50.9880  161.9598   30.7257 H   0  0  0  0  0  0  0  0  0  0  0  0
   52.1280  161.4245   29.4213 H   0  0  0  0  0  0  0  0  0  0  0  0
   52.6436  158.9991   29.1801 H   0  0  0  0  0  0  0  0  0  0  0  0
   53.3667  157.4138   25.2982 H   0  0  0  0  0  0  0  0  0  0  0  0
   54.5889  155.8214   23.8148 H   0  0  0  0  0  0  0  0  0  0  0  0
   54.8765  153.4387   24.5044 H   0  0  0  0  0  0  0  0  0  0  0  0
   54.6140  152.1490   27.3600 H   0  0  0  0  0  0  0  0  0  0  0  0
   50.3980  154.7820   30.6340 H   0  0  0  0  0  0  0  0  0  0  0  0
   49.3678  156.3307   30.0495 H   0  0  0  0  0  0  0  0  0  0  0  0
   48.2161  158.1471   31.2888 H   0  0  0  0  0  0  0  0  0  0  0  0
   49.1552  160.5074   32.7811 H   0  0  0  0  0  0  0  0  0  0  0  0
   49.4439  161.6704   31.4429 H   0  0  0  0  0  0  0  0  0  0  0  0
   47.9655  160.6501   31.4429 H   0  0  0  0  0  0  0  0  0  0  0  0
  1  2  1  0
  2  3  1  0
  3  4  1  0
  4  5  2  0
  5  6  1  0
  6  7  1  0
  7  8  1  0
  8  9  1  0
  9 10  2  0
 10 11  1  0
 11 12  2  0
 12 13  1  0
 13 14  1  0
 13 15  2  0
 15 16  1  0
 16 17  2  0
 16 18  1  0
 18 19  1  0
  6 20  2  0
 20 21  1  0
 21 22  2  0
 22 23  1  0
 22  4  1  0
 18  7  2  0
 15  9  1  0
  1 24  1  0
  1 25  1  0
  1 26  1  0
  2 27  1  0
  2 28  1  0
  3 29  1  0
  3 30  1  0
  5 31  1  0
 10 32  1  0
 11 33  1  0
 12 34  1  0
 14 35  1  0
 19 36  1  0
 20 37  1  0
 21 38  1  0
 23 39  1  0
 23 40  1  0
 23 41  1  0
M  END
>  <meeko>  (3) 
{"is_sidechain": [false], "free_energy": -9.614, "intermolecular_energy": -12.171, "internal_energy": -0.246}

$$$$
cand_022_out
     RDKit          3D

 41 43  0  0  0  0  0  0  0  0999 V2000
   55.1890  156.6860   24.3890 C   0  0  0  0  0  0  0  0  0  0  0  0
   53.8950  156.6610   25.1860 C   0  0  0  0  0  0  0  0  0  0  0  0
   53.3680  155.2350   25.3520 C   0  0  0  0  0  0  0  0  0  0  0  0
   52.8020  155.0040   26.7360 C   0  0  0  0  0  0  0  0  0  0  0  0
   52.2460  156.1040   27.4210 C   0  0  0  0  0  0  0  0  0  0  0  0
   51.7210  155.9790   28.7150 C   0  0  0  0  0  0  0  0  0  0  0  0
   51.1140  157.1250   29.4230 C   0  0  0  0  0  0  0  0  0  0  0  0
   52.0150  158.1580   29.6520 O   0  0  0  0  0  0  0  0  0  0  0  0
   51.5820  159.2850   30.3020 C   0  0  0  0  0  0  0  0  0  0  0  0
   52.5240  160.2910   30.5230 C   0  0  0  0  0  0  0  0  0  0  0  0
   52.1480  161.4650   31.1790 C   0  0  0  0  0  0  0  0  0  0  0  0
   50.8310  161.6350   31.6130 C   0  0  0  0  0  0  0  0  0  0  0  0
   49.8930  160.6300   31.3900 C   0  0  0  0  0  0  0  0  0  0  0  0
   48.6220  160.8610   31.8390 O   0  0  0  0  0  0  0  0  0  0  0  0
   50.2710  159.4540   30.7340 C   0  0  0  0  0  0  0  0  0  0  0  0
   49.3160  158.3730   30.4810 C   0  0  0  0  0  0  0  0  0  0  0  0
   48.1380  158.4520   30.8260 O   0  0  0  0  0  0  0  0  0  0  0  0
   49.8180  157.1660   29.7860 C   0  0  0  0  0  0  0  0  0  0  0  0
   48.9050  156.1570   29.5400 O   0  0  0  0  0  0  0  0  0  0  0  0
   51.7410  154.7180   29.3180 C   0  0  0  0  0  0  0  0  0  0  0  0
   52.2930  153.6170   28.6560 C   0  0  0  0  0  0  0  0  0  0  0  0
   52.8350  153.7460   27.3690 C   0  0  0  0  0  0  0  0  0  0  0  0
   53.4110  152.5300   26.6970 C   0  0  0  0  0  0  0  0  0  0  0  0
   56.0449  156.7025   25.0798 H   0  0  0  0  0  0  0  0  0  0  0  0
   55.2467  155.7888   23.7552 H   0  0  0  0  0  0  0  0  0  0  0  0
   55.2120  157.5848   23.7552 H   0  0  0  0  0  0  0  0  0  0  0  0
   54.0794  157.0923   26.1810 H   0  0  0  0  0  0  0  0  0  0  0  0
   53.1411  157.2467   24.6396 H   0  0  0  0  0  0  0  0  0  0  0  0
   52.5759  155.0592   24.6092 H   0  0  0  0  0  0  0  0  0  0  0  0
   54.2081  154.5402   25.2052 H   0  0  0  0  0  0  0  0  0  0  0  0
   52.2236  157.0865   26.9269 H   0  0  0  0  0  0  0  0  0  0  0  0
   53.5611  160.1592   30.1809 H   0  0  0  0  0  0  0  0  0  0  0  0
   52.8903  162.2576   31.3544 H   0  0  0  0  0  0  0  0  0  0  0  0
   50.5357  162.5602   32.1295 H   0  0  0  0  0  0  0  0  0  0  0  0
   47.9620  161.1550   31.2440 H   0  0  0  0  0  0  0  0  0  0  0  0
   47.9930  156.3020   29.7000 H   0  0  0  0  0  0  0  0  0  0  0  0
   51.3175  154.5904   30.3252 H   0  0  0  0  0  0  0  0  0  0  0  0
   52.3023  152.6352   29.1520 H   0  0  0  0  0  0  0  0  0  0  0  0
   53.7498  151.8148   27.4610 H   0  0  0  0  0  0  0  0  0  0  0  0
   52.6406  152.0584   26.0693 H   0  0  0  0  0  0  0  0  0  0  0  0
   54.2639  152.8274   26.0693 H   0  0  0  0  0  0  0  0  0  0  0  0
  1  2  1  0
  2  3  1  0
  3  4  1  0
  4  5  2  0
  5  6  1  0
  6  7  1  0
  7  8  1  0
  8  9  1  0
  9 10  2  0
 10 11  1  0
 11 12  2  0
 12 13  1  0
 13 14  1  0
 13 15  2  0
 15 16  1  0
 16 17  2  0
 16 18  1  0
 18 19  1  0
  6 20  2  0
 20 21  1  0
 21 22  2  0
 22 23  1  0
 22  4  1  0
 18  7  2  0
 15  9  1  0
  1 24  1  0
  1 25  1  0
  1 26  1  0
  2 27  1  0
  2 28  1  0
  3 29  1  0
  3 30  1  0
  5 31  1  0
 10 32  1  0
 11 33  1  0
 12 34  1  0
 14 35  1  0
 19 36  1  0
 20 37  1  0
 21 38  1  0
 23 39  1  0
 23 40  1  0
 23 41  1  0
M  END
>  <meeko>  (4) 
{"is_sidechain": [false], "free_energy": -8.688, "intermolecular_energy": -10.831, "internal_energy": -0.443}

$$$$
cand_022_out
     RDKit          3D

 41 43  0  0  0  0  0  0  0  0999 V2000
   51.0430  161.2930   31.2860 C   0  0  0  0  0  0  0  0  0  0  0  0
   50.8420  160.3540   30.1080 C   0  0  0  0  0  0  0  0  0  0  0  0
   51.9070  159.2550   30.0820 C   0  0  0  0  0  0  0  0  0  0  0  0
   51.3260  157.9210   29.6670 C   0  0  0  0  0  0  0  0  0  0  0  0
   52.0380  157.1460   28.7300 C   0  0  0  0  0  0  0  0  0  0  0  0
   51.5580  155.9090   28.2770 C   0  0  0  0  0  0  0  0  0  0  0  0
   52.3170  155.0840   27.3150 C   0  0  0  0  0  0  0  0  0  0  0  0
   51.9970  153.7330   27.3920 O   0  0  0  0  0  0  0  0  0  0  0  0
   52.6300  152.8530   26.5520 C   0  0  0  0  0  0  0  0  0  0  0  0
   52.2890  151.5040   26.6740 C   0  0  0  0  0  0  0  0  0  0  0  0
   52.8950  150.5560   25.8480 C   0  0  0  0  0  0  0  0  0  0  0  0
   53.8410  150.9530   24.9010 C   0  0  0  0  0  0  0  0  0  0  0  0
   54.1790  152.2990   24.7810 C   0  0  0  0  0  0  0  0  0  0  0  0
   55.1120  152.6200   23.8340 O   0  0  0  0  0  0  0  0  0  0  0  0
   53.5720  153.2480   25.6090 C   0  0  0  0  0  0  0  0  0  0  0  0
   53.9000  154.6730   25.5160 C   0  0  0  0  0  0  0  0  0  0  0  0
   54.7170  155.1000   24.7030 O   0  0  0  0  0  0  0  0  0  0  0  0
   53.2070  155.5950   26.4430 C   0  0  0  0  0  0  0  0  0  0  0  0
   53.5140  156.9400   26.3380 O   0  0  0  0  0  0  0  0  0  0  0  0
   50.3450  155.4410   28.7930 C   0  0  0  0  0  0  0  0  0  0  0  0
   49.6230  156.1990   29.7190 C   0  0  0  0  0  0  0  0  0  0  0  0
   50.0950  157.4450   30.1590 C   0  0  0  0  0  0  0  0  0  0  0  0
   49.2820  158.2190   31.1600 C   0  0  0  0  0  0  0  0  0  0  0  0
   50.9232  160.7335   32.2255 H   0  0  0  0  0  0  0  0  0  0  0  0
   52.0539  161.7246   31.2426 H   0  0  0  0  0  0  0  0  0  0  0  0
   50.2974  162.1006   31.2426 H   0  0  0  0  0  0  0  0  0  0  0  0
   49.8487  159.8880   30.1871 H   0  0  0  0  0  0  0  0  0  0  0  0
   50.9257  160.9393   29.1804 H   0  0  0  0  0  0  0  0  0  0  0  0
   52.6941  159.5385   29.3678 H   0  0  0  0  0  0  0  0  0  0  0  0
   52.3152  159.1496   31.0980 H   0  0  0  0  0  0  0  0  0  0  0  0
   52.9968  157.5218   28.3433 H   0  0  0  0  0  0  0  0  0  0  0  0
   51.5442  151.1893   27.4198 H   0  0  0  0  0  0  0  0  0  0  0  0
   52.6266  149.4935   25.9434 H   0  0  0  0  0  0  0  0  0  0  0  0
   54.3183  150.2047   24.2512 H   0  0  0  0  0  0  0  0  0  0  0  0
   55.8730  153.1100   24.0740 H   0  0  0  0  0  0  0  0  0  0  0  0
   54.1210  157.3300   26.9360 H   0  0  0  0  0  0  0  0  0  0  0  0
   49.9551  154.4657   28.4664 H   0  0  0  0  0  0  0  0  0  0  0  0
   48.6697  155.8127   30.1090 H   0  0  0  0  0  0  0  0  0  0  0  0
   49.5837  157.9318   32.1781 H   0  0  0  0  0  0  0  0  0  0  0  0
   49.4531  159.2962   31.0170 H   0  0  0  0  0  0  0  0  0  0  0  0
   48.2145  157.9952   31.0170 H   0  0  0  0  0  0  0  0  0  0  0  0
  1  2  1  0
  2  3  1  0
  3  4  1  0
  4  5  2  0
  5  6  1  0
  6  7  1  0
  7  8  1  0
  8  9  1  0
  9 10  2  0
 10 11  1  0
 11 12  2  0
 12 13  1  0
 13 14  1  0
 13 15  2  0
 15 16  1  0
 16 17  2  0
 16 18  1  0
 18 19  1  0
  6 20  2  0
 20 21  1  0
 21 22  2  0
 22 23  1  0
 22  4  1  0
 18  7  2  0
 15  9  1  0
  1 24  1  0
  1 25  1  0
  1 26  1  0
  2 27  1  0
  2 28  1  0
  3 29  1  0
  3 30  1  0
  5 31  1  0
 10 32  1  0
 11 33  1  0
 12 34  1  0
 14 35  1  0
 19 36  1  0
 20 37  1  0
 21 38  1  0
 23 39  1  0
 23 40  1  0
 23 41  1  0
M  END
>  <meeko>  (5) 
{"is_sidechain": [false], "free_energy": -7.943, "intermolecular_energy": -11.071, "internal_energy": 0.717}

$$$$
cand_022_out
     RDKit          3D

 41 43  0  0  0  0  0  0  0  0999 V2000
   51.5460  150.9510   28.1240 C   0  0  0  0  0  0  0  0  0  0  0  0
   51.5390  152.4130   27.7080 C   0  0  0  0  0  0  0  0  0  0  0  0
   51.9590  153.3230   28.8640 C   0  0  0  0  0  0  0  0  0  0  0  0
   52.1930  154.7450   28.4010 C   0  0  0  0  0  0  0  0  0  0  0  0
   51.7060  155.7970   29.2030 C   0  0  0  0  0  0  0  0  0  0  0  0
   51.8630  157.1400   28.8340 C   0  0  0  0  0  0  0  0  0  0  0  0
   51.3770  158.2440   29.6860 C   0  0  0  0  0  0  0  0  0  0  0  0
   50.0430  158.1010   30.0470 O   0  0  0  0  0  0  0  0  0  0  0  0
   49.4640  159.0590   30.8400 C   0  0  0  0  0  0  0  0  0  0  0  0
   48.1170  158.8830   31.1660 C   0  0  0  0  0  0  0  0  0  0  0  0
   47.4670  159.8210   31.9710 C   0  0  0  0  0  0  0  0  0  0  0  0
   48.1620  160.9340   32.4510 C   0  0  0  0  0  0  0  0  0  0  0  0
   49.5050  161.1060   32.1250 C   0  0  0  0  0  0  0  0  0  0  0  0
   50.1250  162.2160   32.6290 O   0  0  0  0  0  0  0  0  0  0  0  0
   50.1550  160.1670   31.3180 C   0  0  0  0  0  0  0  0  0  0  0  0
   51.5650  160.3120   30.9520 C   0  0  0  0  0  0  0  0  0  0  0  0
   52.2450  161.2590   31.3420 O   0  0  0  0  0  0  0  0  0  0  0  0
   52.1570  159.2660   30.0870 C   0  0  0  0  0  0  0  0  0  0  0  0
   53.4930  159.4060   29.7580 O   0  0  0  0  0  0  0  0  0  0  0  0
   52.5390  157.4240   27.6430 C   0  0  0  0  0  0  0  0  0  0  0  0
   53.0240  156.3940   26.8330 C   0  0  0  0  0  0  0  0  0  0  0  0
   52.8510  155.0490   27.1930 C   0  0  0  0  0  0  0  0  0  0  0  0
   53.3960  153.9780   26.2890 C   0  0  0  0  0  0  0  0  0  0  0  0
   51.5463  150.8822   29.2218 H   0  0  0  0  0  0  0  0  0  0  0  0
   50.6502  150.4521   27.7256 H   0  0  0  0  0  0  0  0  0  0  0  0
   52.4465  150.4607   27.7256 H   0  0  0  0  0  0  0  0  0  0  0  0
   52.2396  152.5506   26.8712 H   0  0  0  0  0  0  0  0  0  0  0  0
   50.5158  152.6833   27.4081 H   0  0  0  0  0  0  0  0  0  0  0  0
   51.1647  153.3221   29.6250 H   0  0  0  0  0  0  0  0  0  0  0  0
   52.9024  152.9377   29.2781 H   0  0  0  0  0  0  0  0  0  0  0  0
   51.1888  155.5574   30.1438 H   0  0  0  0  0  0  0  0  0  0  0  0
   47.5691  158.0068   30.7891 H   0  0  0  0  0  0  0  0  0  0  0  0
   46.4062  159.6834   32.2276 H   0  0  0  0  0  0  0  0  0  0  0  0
   47.6496  161.6727   33.0849 H   0  0  0  0  0  0  0  0  0  0  0  0
   51.0130  162.4040   32.3940 H   0  0  0  0  0  0  0  0  0  0  0  0
   53.7410  159.5970   28.8740 H   0  0  0  0  0  0  0  0  0  0  0  0
   52.6906  158.4706   27.3404 H   0  0  0  0  0  0  0  0  0  0  0  0
   53.5495  156.6414   25.8988 H   0  0  0  0  0  0  0  0  0  0  0  0
   53.8116  153.1612   26.8973 H   0  0  0  0  0  0  0  0  0  0  0  0
   52.5870  153.5873   25.6542 H   0  0  0  0  0  0  0  0  0  0  0  0
   54.1880  154.4020   25.6542 H   0  0  0  0  0  0  0  0  0  0  0  0
  1  2  1  0
  2  3  1  0
  3  4  1  0
  4  5  2  0
  5  6  1  0
  6  7  1  0
  7  8  1  0
  8  9  1  0
  9 10  2  0
 10 11  1  0
 11 12  2  0
 12 13  1  0
 13 14  1  0
 13 15  2  0
 15 16  1  0
 16 17  2  0
 16 18  1  0
 18 19  1  0
  6 20  2  0
 20 21  1  0
 21 22  2  0
 22 23  1  0
 22  4  1  0
 18  7  2  0
 15  9  1  0
  1 24  1  0
  1 25  1  0
  1 26  1  0
  2 27  1  0
  2 28  1  0
  3 29  1  0
  3 30  1  0
  5 31  1  0
 10 32  1  0
 11 33  1  0
 12 34  1  0
 14 35  1  0
 19 36  1  0
 20 37  1  0
 21 38  1  0
 23 39  1  0
 23 40  1  0
 23 41  1  0
M  END
>  <meeko>  (6) 
{"is_sidechain": [false], "free_energy": -7.421, "intermolecular_energy": -10.201, "internal_energy": 0.49}

$$$$
cand_022_out
     RDKit          3D

 41 43  0  0  0  0  0  0  0  0999 V2000
   47.7930  159.2100   31.3000 C   0  0  0  0  0  0  0  0  0  0  0  0
   48.3490  158.5320   30.0580 C   0  0  0  0  0  0  0  0  0  0  0  0
   49.2400  157.3430   30.4230 C   0  0  0  0  0  0  0  0  0  0  0  0
   50.5930  157.4310   29.7520 C   0  0  0  0  0  0  0  0  0  0  0  0
   50.9860  156.3780   28.9020 C   0  0  0  0  0  0  0  0  0  0  0  0
   52.2320  156.3720   28.2590 C   0  0  0  0  0  0  0  0  0  0  0  0
   52.6340  155.2820   27.3470 C   0  0  0  0  0  0  0  0  0  0  0  0
   52.1430  154.0420   27.7380 O   0  0  0  0  0  0  0  0  0  0  0  0
   52.4420  152.9400   26.9780 C   0  0  0  0  0  0  0  0  0  0  0  0
   51.9410  151.7130   27.4150 C   0  0  0  0  0  0  0  0  0  0  0  0
   52.2070  150.5520   26.6860 C   0  0  0  0  0  0  0  0  0  0  0  0
   52.9730  150.6170   25.5200 C   0  0  0  0  0  0  0  0  0  0  0  0
   53.4710  151.8430   25.0860 C   0  0  0  0  0  0  0  0  0  0  0  0
   54.2130  151.8360   23.9370 O   0  0  0  0  0  0  0  0  0  0  0  0
   53.2050  153.0040   25.8170 C   0  0  0  0  0  0  0  0  0  0  0  0
   53.7110  154.3120   25.3950 C   0  0  0  0  0  0  0  0  0  0  0  0
   54.3860  154.4510   24.3770 O   0  0  0  0  0  0  0  0  0  0  0  0
   53.3790  155.4790   26.2430 C   0  0  0  0  0  0  0  0  0  0  0  0
   53.8500  156.7120   25.8280 O   0  0  0  0  0  0  0  0  0  0  0  0
   53.0880  157.4590   28.4660 C   0  0  0  0  0  0  0  0  0  0  0  0
   52.7170  158.5100   29.3100 C   0  0  0  0  0  0  0  0  0  0  0  0
   51.4770  158.5070   29.9670 C   0  0  0  0  0  0  0  0  0  0  0  0
   51.1240  159.6640   30.8590 C   0  0  0  0  0  0  0  0  0  0  0  0
   48.1961  158.7184   32.1977 H   0  0  0  0  0  0  0  0  0  0  0  0
   48.0848  160.2706   31.3005 H   0  0  0  0  0  0  0  0  0  0  0  0
   46.6958  159.1316   31.3005 H   0  0  0  0  0  0  0  0  0  0  0  0
   47.5119  158.1755   29.4397 H   0  0  0  0  0  0  0  0  0  0  0  0
   48.9572  159.2642   29.5066 H   0  0  0  0  0  0  0  0  0  0  0  0
   49.3833  157.3264   31.5135 H   0  0  0  0  0  0  0  0  0  0  0  0
   48.7445  156.4241   30.0765 H   0  0  0  0  0  0  0  0  0  0  0  0
   50.2959  155.5372   28.7383 H   0  0  0  0  0  0  0  0  0  0  0  0
   51.3371  151.6604   28.3329 H   0  0  0  0  0  0  0  0  0  0  0  0
   51.8126  149.5847   27.0307 H   0  0  0  0  0  0  0  0  0  0  0  0
   53.1824  149.7023   24.9460 H   0  0  0  0  0  0  0  0  0  0  0  0
   54.0110  152.4360   23.2460 H   0  0  0  0  0  0  0  0  0  0  0  0
   53.8950  157.4240   26.4350 H   0  0  0  0  0  0  0  0  0  0  0  0
   54.0638  157.4871   27.9591 H   0  0  0  0  0  0  0  0  0  0  0  0
   53.4079  159.3524   29.4614 H   0  0  0  0  0  0  0  0  0  0  0  0
   51.2175  159.3575   31.9113 H   0  0  0  0  0  0  0  0  0  0  0  0
   51.8071  160.5027   30.6593 H   0  0  0  0  0  0  0  0  0  0  0  0
   50.0890  159.9785   30.6593 H   0  0  0  0  0  0  0  0  0  0  0  0
  1  2  1  0
  2  3  1  0
  3  4  1  0
  4  5  2  0
  5  6  1  0
  6  7  1  0
  7  8  1  0
  8  9  1  0
  9 10  2  0
 10 11  1  0
 11 12  2  0
 12 13  1  0
 13 14  1  0
 13 15  2  0
 15 16  1  0
 16 17  2  0
 16 18  1  0
 18 19  1  0
  6 20  2  0
 20 21  1  0
 21 22  2  0
 22 23  1  0
 22  4  1  0
 18  7  2  0
 15  9  1  0
  1 24  1  0
  1 25  1  0
  1 26  1  0
  2 27  1  0
  2 28  1  0
  3 29  1  0
  3 30  1  0
  5 31  1  0
 10 32  1  0
 11 33  1  0
 12 34  1  0
 14 35  1  0
 19 36  1  0
 20 37  1  0
 21 38  1  0
 23 39  1  0
 23 40  1  0
 23 41  1  0
M  END
>  <meeko>  (7) 
{"is_sidechain": [false], "free_energy": -7.403, "intermolecular_energy": -10.115, "internal_energy": 0.427}

$$$$
cand_022_out
     RDKit          3D

 41 43  0  0  0  0  0  0  0  0999 V2000
   52.4750  151.0690   26.2370 C   0  0  0  0  0  0  0  0  0  0  0  0
   51.8250  152.1470   27.0900 C   0  0  0  0  0  0  0  0  0  0  0  0
   52.8670  152.9220   27.8990 C   0  0  0  0  0  0  0  0  0  0  0  0
   52.8410  154.4000   27.5750 C   0  0  0  0  0  0  0  0  0  0  0  0
   52.1880  155.2680   28.4740 C   0  0  0  0  0  0  0  0  0  0  0  0
   52.1010  156.6470   28.2360 C   0  0  0  0  0  0  0  0  0  0  0  0
   51.4410  157.5620   29.1900 C   0  0  0  0  0  0  0  0  0  0  0  0
   52.1930  158.7010   29.4560 O   0  0  0  0  0  0  0  0  0  0  0  0
   51.6960  159.6360   30.3270 C   0  0  0  0  0  0  0  0  0  0  0  0
   52.4910  160.7560   30.5750 C   0  0  0  0  0  0  0  0  0  0  0  0
   52.0430  161.7470   31.4510 C   0  0  0  0  0  0  0  0  0  0  0  0
   50.8010  161.6200   32.0780 C   0  0  0  0  0  0  0  0  0  0  0  0
   50.0100  160.5010   31.8280 C   0  0  0  0  0  0  0  0  0  0  0  0
   48.8060  160.4390   32.4730 O   0  0  0  0  0  0  0  0  0  0  0  0
   50.4590  159.5090   30.9510 C   0  0  0  0  0  0  0  0  0  0  0  0
   49.6590  158.3170   30.6610 C   0  0  0  0  0  0  0  0  0  0  0  0
   48.5540  158.1370   31.1680 O   0  0  0  0  0  0  0  0  0  0  0  0
   50.2290  157.3220   29.7250 C   0  0  0  0  0  0  0  0  0  0  0  0
   49.4590  156.2070   29.4480 O   0  0  0  0  0  0  0  0  0  0  0  0
   52.6990  157.1580   27.0800 C   0  0  0  0  0  0  0  0  0  0  0  0
   53.3450  156.3120   26.1750 C   0  0  0  0  0  0  0  0  0  0  0  0
   53.4170  154.9290   26.4040 C   0  0  0  0  0  0  0  0  0  0  0  0
   54.1280  154.0620   25.4020 C   0  0  0  0  0  0  0  0  0  0  0  0
   52.9321  150.3108   26.8899 H   0  0  0  0  0  0  0  0  0  0  0  0
   51.7124  150.5944   25.6020 H   0  0  0  0  0  0  0  0  0  0  0  0
   53.2507  151.5219   25.6020 H   0  0  0  0  0  0  0  0  0  0  0  0
   51.2880  152.8475   26.4336 H   0  0  0  0  0  0  0  0  0  0  0  0
   51.1319  151.6616   27.7928 H   0  0  0  0  0  0  0  0  0  0  0  0
   52.6579  152.7882   28.9706 H   0  0  0  0  0  0  0  0  0  0  0  0
   53.8622  152.5316   27.6398 H   0  0  0  0  0  0  0  0  0  0  0  0
   51.7349  154.8524   29.3861 H   0  0  0  0  0  0  0  0  0  0  0  0
   53.4687  160.8579   30.0813 H   0  0  0  0  0  0  0  0  0  0  0  0
   52.6694  162.6295   31.6478 H   0  0  0  0  0  0  0  0  0  0  0  0
   50.4487  162.4016   32.7672 H   0  0  0  0  0  0  0  0  0  0  0  0
   48.7770  160.4300   33.4100 H   0  0  0  0  0  0  0  0  0  0  0  0
   49.6390  155.3950   29.8790 H   0  0  0  0  0  0  0  0  0  0  0  0
   52.6604  158.2391   26.8807 H   0  0  0  0  0  0  0  0  0  0  0  0
   53.8039  156.7360   25.2697 H   0  0  0  0  0  0  0  0  0  0  0  0
   54.7396  153.3162   25.9310 H   0  0  0  0  0  0  0  0  0  0  0  0
   53.3878  153.5482   24.7710 H   0  0  0  0  0  0  0  0  0  0  0  0
   54.7768  154.6873   24.7710 H   0  0  0  0  0  0  0  0  0  0  0  0
  1  2  1  0
  2  3  1  0
  3  4  1  0
  4  5  2  0
  5  6  1  0
  6  7  1  0
  7  8  1  0
  8  9  1  0
  9 10  2  0
 10 11  1  0
 11 12  2  0
 12 13  1  0
 13 14  1  0
 13 15  2  0
 15 16  1  0
 16 17  2  0
 16 18  1  0
 18 19  1  0
  6 20  2  0
 20 21  1  0
 21 22  2  0
 22 23  1  0
 22  4  1  0
 18  7  2  0
 15  9  1  0
  1 24  1  0
  1 25  1  0
  1 26  1  0
  2 27  1  0
  2 28  1  0
  3 29  1  0
  3 30  1  0
  5 31  1  0
 10 32  1  0
 11 33  1  0
 12 34  1  0
 14 35  1  0
 19 36  1  0
 20 37  1  0
 21 38  1  0
 23 39  1  0
 23 40  1  0
 23 41  1  0
M  END
>  <meeko>  (8) 
{"is_sidechain": [false], "free_energy": -7.329, "intermolecular_energy": -9.4, "internal_energy": -0.197}

$$$$
