cand_018_out
     RDKit          3D

 44 47  0  0  0  0  0  0  0  0999 V2000
   52.3690  152.5150   26.9530 C   0  0  0  0  0  0  0  0  0  0  0  0
   52.1210  153.8480   27.6060 C   0  0  0  0  0  0  0  0  0  0  0  0
   51.6200  153.8890   28.9160 C   0  0  0  0  0  0  0  0  0  0  0  0
   51.3820  155.1100   29.5490 C   0  0  0  0  0  0  0  0  0  0  0  0
   51.6510  156.3160   28.8940 C   0  0  0  0  0  0  0  0  0  0  0  0
   51.3780  157.6000   29.5730 C   0  0  0  0  0  0  0  0  0  0  0  0
   50.0870  157.6740   30.0860 O   0  0  0  0  0  0  0  0  0  0  0  0
   49.6990  158.8140   30.7430 C   0  0  0  0  0  0  0  0  0  0  0  0
   48.3910  158.8510   31.2270 C   0  0  0  0  0  0  0  0  0  0  0  0
   47.9320  159.9810   31.9070 C   0  0  0  0  0  0  0  0  0  0  0  0
   48.7810  161.0720   32.1040 C   0  0  0  0  0  0  0  0  0  0  0  0
   50.0860  161.0320   31.6210 C   0  0  0  0  0  0  0  0  0  0  0  0
   50.8640  162.1340   31.8490 O   0  0  0  0  0  0  0  0  0  0  0  0
   50.5440  159.9010   30.9390 C   0  0  0  0  0  0  0  0  0  0  0  0
   51.9080  159.8180   30.4140 C   0  0  0  0  0  0  0  0  0  0  0  0
   52.7160  160.7340   30.5540 O   0  0  0  0  0  0  0  0  0  0  0  0
   52.2930  158.5780   29.7000 C   0  0  0  0  0  0  0  0  0  0  0  0
   53.5880  158.5060   29.2200 O   0  0  0  0  0  0  0  0  0  0  0  0
   52.1480  156.2690   27.5810 C   0  0  0  0  0  0  0  0  0  0  0  0
   52.3890  155.0500   26.9210 C   0  0  0  0  0  0  0  0  0  0  0  0
   52.9240  154.9970   25.6220 N   0  0  0  0  0  0  0  0  0  0  0  0
   54.1310  154.1500   25.5500 C   0  0  0  0  0  0  0  0  0  0  0  0
   54.9620  154.7810   24.4390 C   0  0  0  0  0  0  0  0  0  0  0  0
   54.6850  156.2600   24.6300 C   0  0  0  0  0  0  0  0  0  0  0  0
   53.1930  156.2820   24.9520 C   0  0  0  0  0  0  0  0  0  0  0  0
   52.5117  151.7478   27.7283 H   0  0  0  0  0  0  0  0  0  0  0  0
   51.5053  152.2471   26.3267 H   0  0  0  0  0  0  0  0  0  0  0  0
   53.2713  152.5757   26.3267 H   0  0  0  0  0  0  0  0  0  0  0  0
   51.4127  152.9496   29.4494 H   0  0  0  0  0  0  0  0  0  0  0  0
   50.9791  155.1238   30.5725 H   0  0  0  0  0  0  0  0  0  0  0  0
   47.7223  157.9913   31.0732 H   0  0  0  0  0  0  0  0  0  0  0  0
   46.9005  160.0117   32.2879 H   0  0  0  0  0  0  0  0  0  0  0  0
   48.4191  161.9618   32.6401 H   0  0  0  0  0  0  0  0  0  0  0  0
   51.0920  162.3730   32.7260 H   0  0  0  0  0  0  0  0  0  0  0  0
   54.1660  159.2370   29.3200 H   0  0  0  0  0  0  0  0  0  0  0  0
   52.3547  157.2121   27.0538 H   0  0  0  0  0  0  0  0  0  0  0  0
   54.6777  154.1672   26.5044 H   0  0  0  0  0  0  0  0  0  0  0  0
   53.8946  153.0940   25.3527 H   0  0  0  0  0  0  0  0  0  0  0  0
   56.0315  154.5564   24.5646 H   0  0  0  0  0  0  0  0  0  0  0  0
   54.7087  154.4111   23.4345 H   0  0  0  0  0  0  0  0  0  0  0  0
   55.2766  156.6704   25.4617 H   0  0  0  0  0  0  0  0  0  0  0  0
   54.9523  156.8711   23.7553 H   0  0  0  0  0  0  0  0  0  0  0  0
   52.9548  157.1228   25.6201 H   0  0  0  0  0  0  0  0  0  0  0  0
   52.5790  156.4114   24.0485 H   0  0  0  0  0  0  0  0  0  0  0  0
  1  2  1  0
  2  3  2  0
  3  4  1  0
  4  5  2  0
  5  6  1  0
  6  7  1  0
  7  8  1  0
  8  9  2  0
  9 10  1  0
 10 11  2  0
 11 12  1  0
 12 13  1  0
 12 14  2  0
 14 15  1  0
 15 16  2  0
 15 17  1  0
 17 18  1  0
  5 19  1  0
 19 20  2  0
 20 21  1  0
 21 22  1  0
 22 23  1  0
 23 24  1  0
 24 25  1  0
 20  2  1  0
 25 21  1  0
 17  6  2  0
 14  8  1  0
  1 26  1  0
  1 27  1  0
  1 28  1  0
  3 29  1  0
  4 30  1  0
  9 31  1  0
 10 32  1  0
 11 33  1  0
 13 34  1  0
 18 35  1  0
 19 36  1  0
 22 37  1  0
 22 38  1  0
 23 39  1  0
 23 40  1  0
 24 41  1  0
 24 42  1  0
 25 43  1  0
 25 44  1  0
M  END
>  <meeko>  (1) 
{"is_sidechain": [false], "free_energy": -10.723, "intermolecular_energy": -12.603, "internal_energy": 0.33}

$$$$
cand_018_out
     RDKit          3D

 44 47  0  0  0  0  0  0  0  0999 V2000
   50.7700  160.7980   31.2170 C   0  0  0  0  0  0  0  0  0  0  0  0
   51.0630  159.5050   30.5050 C   0  0  0  0  0  0  0  0  0  0  0  0
   52.3000  159.3390   29.8620 C   0  0  0  0  0  0  0  0  0  0  0  0
   52.6020  158.1510   29.1960 C   0  0  0  0  0  0  0  0  0  0  0  0
   51.6830  157.0970   29.1680 C   0  0  0  0  0  0  0  0  0  0  0  0
   52.0130  155.8510   28.4440 C   0  0  0  0  0  0  0  0  0  0  0  0
   52.5250  156.0860   27.1720 O   0  0  0  0  0  0  0  0  0  0  0  0
   52.8730  155.0150   26.3890 C   0  0  0  0  0  0  0  0  0  0  0  0
   53.3670  155.2980   25.1150 C   0  0  0  0  0  0  0  0  0  0  0  0
   53.7430  154.2540   24.2670 C   0  0  0  0  0  0  0  0  0  0  0  0
   53.6270  152.9290   24.6930 C   0  0  0  0  0  0  0  0  0  0  0  0
   53.1350  152.6510   25.9650 C   0  0  0  0  0  0  0  0  0  0  0  0
   53.0470  151.3320   26.3200 O   0  0  0  0  0  0  0  0  0  0  0  0
   52.7580  153.6960   26.8140 C   0  0  0  0  0  0  0  0  0  0  0  0
   52.2350  153.4480   28.1580 C   0  0  0  0  0  0  0  0  0  0  0  0
   52.1090  152.3100   28.6070 O   0  0  0  0  0  0  0  0  0  0  0  0
   51.8560  154.6240   28.9740 C   0  0  0  0  0  0  0  0  0  0  0  0
   51.3760  154.3770   30.2480 O   0  0  0  0  0  0  0  0  0  0  0  0
   50.4460  157.2690   29.8090 C   0  0  0  0  0  0  0  0  0  0  0  0
   50.1170  158.4620   30.4810 C   0  0  0  0  0  0  0  0  0  0  0  0
   48.8950  158.6240   31.1580 N   0  0  0  0  0  0  0  0  0  0  0  0
   47.8660  159.2530   30.3060 C   0  0  0  0  0  0  0  0  0  0  0  0
   46.9950  160.0280   31.2870 C   0  0  0  0  0  0  0  0  0  0  0  0
   48.0100  160.5180   32.3020 C   0  0  0  0  0  0  0  0  0  0  0  0
   48.9330  159.3130   32.4600 C   0  0  0  0  0  0  0  0  0  0  0  0
   50.8071  160.6345   32.3041 H   0  0  0  0  0  0  0  0  0  0  0  0
   51.5203  161.5508   30.9336 H   0  0  0  0  0  0  0  0  0  0  0  0
   49.7685  161.1538   30.9336 H   0  0  0  0  0  0  0  0  0  0  0  0
   53.0385  160.1539   29.8836 H   0  0  0  0  0  0  0  0  0  0  0  0
   53.5717  158.0422   28.6883 H   0  0  0  0  0  0  0  0  0  0  0  0
   53.4601  156.3414   24.7793 H   0  0  0  0  0  0  0  0  0  0  0  0
   54.1312  154.4756   23.2619 H   0  0  0  0  0  0  0  0  0  0  0  0
   53.9237  152.1071   24.0249 H   0  0  0  0  0  0  0  0  0  0  0  0
   52.9890  150.6720   25.6570 H   0  0  0  0  0  0  0  0  0  0  0  0
   51.0520  153.5260   30.4690 H   0  0  0  0  0  0  0  0  0  0  0  0
   49.7132  156.4490   29.7857 H   0  0  0  0  0  0  0  0  0  0  0  0
   48.3271  159.9312   29.5729 H   0  0  0  0  0  0  0  0  0  0  0  0
   47.2931  158.5172   29.7226 H   0  0  0  0  0  0  0  0  0  0  0  0
   46.4887  160.8695   30.7916 H   0  0  0  0  0  0  0  0  0  0  0  0
   46.1857  159.4272   31.7277 H   0  0  0  0  0  0  0  0  0  0  0  0
   48.5599  161.3922   31.9232 H   0  0  0  0  0  0  0  0  0  0  0  0
   47.5571  160.8487   33.2483 H   0  0  0  0  0  0  0  0  0  0  0  0
   49.9570  159.6395   32.6939 H   0  0  0  0  0  0  0  0  0  0  0  0
   48.6141  158.6558   33.2824 H   0  0  0  0  0  0  0  0  0  0  0  0
  1  2  1  0
  2  3  2  0
  3  4  1  0
  4  5  2  0
  5  6  1  0
  6  7  1  0
  7  8  1  0
  8  9  2  0
  9 10  1  0
 10 11  2  0
 11 12  1  0
 12 13  1  0
 12 14  2  0
 14 15  1  0
 15 16  2  0
 15 17  1  0
 17 18  1  0
  5 19  1  0
 19 20  2  0
 20 21  1  0
 21 22  1  0
 22 23  1  0
 23 24  1  0
 24 25  1  0
 20  2  1  0
 25 21  1  0
 17  6  2  0
 14  8  1  0
  1 26  1  0
  1 27  1  0
  1 28  1  0
  3 29  1  0
  4 30  1  0
  9 31  1  0
 10 32  1  0
 11 33  1  0
 13 34  1  0
 18 35  1  0
 19 36  1  0
 22 37  1  0
 22 38  1  0
 23 39  1  0
 23 40  1  0
 24 41  1  0
 24 42  1  0
 25 43  1  0
 25 44  1  0
M  END
>  <meeko>  (2) 
{"is_sidechain": [false], "free_energy": -10.344, "intermolecular_energy": -13.095, "internal_energy": 1.266}

$$$$
cand_018_out
     RDKit          3D

 44 47  0  0  0  0  0  0  0  0999 V2000
   48.8610  160.8000   31.9070 C   0  0  0  0  0  0  0  0  0  0  0  0
   49.5980  159.7360   31.1390 C   0  0  0  0  0  0  0  0  0  0  0  0
   48.9380  158.5410   30.8130 C   0  0  0  0  0  0  0  0  0  0  0  0
   49.5940  157.5380   30.0990 C   0  0  0  0  0  0  0  0  0  0  0  0
   50.9180  157.7090   29.6830 C   0  0  0  0  0  0  0  0  0  0  0  0
   51.6030  156.6280   28.9420 C   0  0  0  0  0  0  0  0  0  0  0  0
   52.1710  157.0670   27.7510 O   0  0  0  0  0  0  0  0  0  0  0  0
   52.8380  156.1650   26.9620 C   0  0  0  0  0  0  0  0  0  0  0  0
   53.3780  156.6460   25.7680 C   0  0  0  0  0  0  0  0  0  0  0  0
   54.0720  155.7810   24.9200 C   0  0  0  0  0  0  0  0  0  0  0  0
   54.2270  154.4370   25.2650 C   0  0  0  0  0  0  0  0  0  0  0  0
   53.6880  153.9600   26.4570 C   0  0  0  0  0  0  0  0  0  0  0  0
   53.8770  152.6340   26.7340 O   0  0  0  0  0  0  0  0  0  0  0  0
   52.9930  154.8270   27.3060 C   0  0  0  0  0  0  0  0  0  0  0  0
   52.4100  154.3670   28.5670 C   0  0  0  0  0  0  0  0  0  0  0  0
   52.5100  153.2000   28.9430 O   0  0  0  0  0  0  0  0  0  0  0  0
   51.6850  155.3620   29.3910 C   0  0  0  0  0  0  0  0  0  0  0  0
   51.1510  154.9190   30.5870 O   0  0  0  0  0  0  0  0  0  0  0  0
   51.5760  158.9040   30.0160 C   0  0  0  0  0  0  0  0  0  0  0  0
   50.9360  159.9270   30.7410 C   0  0  0  0  0  0  0  0  0  0  0  0
   51.5770  161.1410   31.0420 N   0  0  0  0  0  0  0  0  0  0  0  0
   52.2430  161.7280   29.8610 C   0  0  0  0  0  0  0  0  0  0  0  0
   53.4320  162.4820   30.4420 C   0  0  0  0  0  0  0  0  0  0  0  0
   53.8530  161.5850   31.5910 C   0  0  0  0  0  0  0  0  0  0  0  0
   52.5160  161.1440   32.1780 C   0  0  0  0  0  0  0  0  0  0  0  0
   48.9828  160.6242   32.9860 H   0  0  0  0  0  0  0  0  0  0  0  0
   49.2691  161.7882   31.6482 H   0  0  0  0  0  0  0  0  0  0  0  0
   47.7925  160.7653   31.6482 H   0  0  0  0  0  0  0  0  0  0  0  0
   47.8931  158.3938   31.1236 H   0  0  0  0  0  0  0  0  0  0  0  0
   49.0646  156.6036   29.8610 H   0  0  0  0  0  0  0  0  0  0  0  0
   53.2569  157.7049   25.4957 H   0  0  0  0  0  0  0  0  0  0  0  0
   54.4974  156.1589   23.9786 H   0  0  0  0  0  0  0  0  0  0  0  0
   54.7740  153.7561   24.5963 H   0  0  0  0  0  0  0  0  0  0  0  0
   53.1430  152.0520   26.7600 H   0  0  0  0  0  0  0  0  0  0  0  0
   51.5630  155.1450   31.3970 H   0  0  0  0  0  0  0  0  0  0  0  0
   52.6207  159.0447   29.7016 H   0  0  0  0  0  0  0  0  0  0  0  0
   52.5795  160.9404   29.1707 H   0  0  0  0  0  0  0  0  0  0  0  0
   51.5739  162.3786   29.2787 H   0  0  0  0  0  0  0  0  0  0  0  0
   54.2386  162.5857   29.7013 H   0  0  0  0  0  0  0  0  0  0  0  0
   53.1934  163.5105   30.7505 H   0  0  0  0  0  0  0  0  0  0  0  0
   54.4316  160.7222   31.2294 H   0  0  0  0  0  0  0  0  0  0  0  0
   54.5062  162.0866   32.3202 H   0  0  0  0  0  0  0  0  0  0  0  0
   52.5990  160.1368   32.6125 H   0  0  0  0  0  0  0  0  0  0  0  0
   52.1816  161.8115   32.9859 H   0  0  0  0  0  0  0  0  0  0  0  0
  1  2  1  0
  2  3  2  0
  3  4  1  0
  4  5  2  0
  5  6  1  0
  6  7  1  0
  7  8  1  0
  8  9  2  0
  9 10  1  0
 10 11  2  0
 11 12  1  0
 12 13  1  0
 12 14  2  0
 14 15  1  0
 15 16  2  0
 15 17  1  0
 17 18  1  0
  5 19  1  0
 19 20  2  0
 20 21  1  0
 21 22  1  0
 22 23  1  0
 23 24  1  0
 24 25  1  0
 20  2  1  0
 25 21  1  0
 17  6  2  0
 14  8  1  0
  1 26  1  0
  1 27  1  0
  1 28  1  0
  3 29  1  0
  4 30  1  0
  9 31  1  0
 10 32  1  0
 11 33  1  0
 13 34  1  0
 18 35  1  0
 19 36  1  0
 22 37  1  0
 22 38  1  0
 23 39  1  0
 23 40  1  0
 24 41  1  0
 24 42  1  0
 25 43  1  0
 25 44  1  0
M  END
>  <meeko>  (3) 
{"is_sidechain": [false], "free_energy": -9.131, "intermolecular_energy": -9.874, "internal_energy": -0.529}

$$$$
cand_018_out
     RDKit          3D

 44 47  0  0  0  0  0  0  0  0999 V2000
   53.1950  152.4400   26.7310 C   0  0  0  0  0  0  0  0  0  0  0  0
   52.6450  153.6660   27.4100 C   0  0  0  0  0  0  0  0  0  0  0  0
   52.1480  153.5620   28.7180 C   0  0  0  0  0  0  0  0  0  0  0  0
   51.6350  154.6810   29.3750 C   0  0  0  0  0  0  0  0  0  0  0  0
   51.6190  155.9310   28.7470 C   0  0  0  0  0  0  0  0  0  0  0  0
   51.0560  157.1020   29.4520 C   0  0  0  0  0  0  0  0  0  0  0  0
   51.9930  158.1100   29.6560 O   0  0  0  0  0  0  0  0  0  0  0  0
   51.6050  159.2570   30.3000 C   0  0  0  0  0  0  0  0  0  0  0  0
   52.5810  160.2340   30.4970 C   0  0  0  0  0  0  0  0  0  0  0  0
   52.2520  161.4260   31.1450 C   0  0  0  0  0  0  0  0  0  0  0  0
   50.9470  161.6420   31.5940 C   0  0  0  0  0  0  0  0  0  0  0  0
   49.9750  160.6650   31.3960 C   0  0  0  0  0  0  0  0  0  0  0  0
   48.7180  160.9410   31.8600 O   0  0  0  0  0  0  0  0  0  0  0  0
   50.3060  159.4710   30.7480 C   0  0  0  0  0  0  0  0  0  0  0  0
   49.3150  158.4180   30.5200 C   0  0  0  0  0  0  0  0  0  0  0  0
   48.1450  158.5370   30.8800 O   0  0  0  0  0  0  0  0  0  0  0  0
   49.7680  157.1880   29.8320 C   0  0  0  0  0  0  0  0  0  0  0  0
   48.8200  156.2060   29.6100 O   0  0  0  0  0  0  0  0  0  0  0  0
   52.1130  156.0280   27.4370 C   0  0  0  0  0  0  0  0  0  0  0  0
   52.6290  154.9120   26.7520 C   0  0  0  0  0  0  0  0  0  0  0  0
   53.1620  155.0120   25.4550 N   0  0  0  0  0  0  0  0  0  0  0  0
   54.4120  154.2410   25.3050 C   0  0  0  0  0  0  0  0  0  0  0  0
   55.2050  155.0180   24.2610 C   0  0  0  0  0  0  0  0  0  0  0  0
   54.8490  156.4560   24.5910 C   0  0  0  0  0  0  0  0  0  0  0  0
   53.3600  156.3670   24.9110 C   0  0  0  0  0  0  0  0  0  0  0  0
   53.5204  151.7147   27.4913 H   0  0  0  0  0  0  0  0  0  0  0  0
   52.4138  151.9872   26.1028 H   0  0  0  0  0  0  0  0  0  0  0  0
   54.0527  152.7224   26.1028 H   0  0  0  0  0  0  0  0  0  0  0  0
   52.1629  152.5888   29.2305 H   0  0  0  0  0  0  0  0  0  0  0  0
   51.2394  154.5793   30.3964 H   0  0  0  0  0  0  0  0  0  0  0  0
   53.6085  160.0654   30.1422 H   0  0  0  0  0  0  0  0  0  0  0  0
   53.0215  162.1962   31.3022 H   0  0  0  0  0  0  0  0  0  0  0  0
   50.6878  162.5821   32.1030 H   0  0  0  0  0  0  0  0  0  0  0  0
   48.3320  160.3950   32.5170 H   0  0  0  0  0  0  0  0  0  0  0  0
   48.9930  155.3220   29.8650 H   0  0  0  0  0  0  0  0  0  0  0  0
   52.0964  157.0045   26.9309 H   0  0  0  0  0  0  0  0  0  0  0  0
   54.9599  154.1962   26.2578 H   0  0  0  0  0  0  0  0  0  0  0  0
   54.2313  153.1976   25.0074 H   0  0  0  0  0  0  0  0  0  0  0  0
   56.2853  154.8403   24.3674 H   0  0  0  0  0  0  0  0  0  0  0  0
   54.9695  154.7319   23.2253 H   0  0  0  0  0  0  0  0  0  0  0  0
   55.4205  156.8171   25.4588 H   0  0  0  0  0  0  0  0  0  0  0  0
   55.0798  157.1607   23.7785 H   0  0  0  0  0  0  0  0  0  0  0  0
   53.0794  157.1264   25.6557 H   0  0  0  0  0  0  0  0  0  0  0  0
   52.7371  156.5485   24.0227 H   0  0  0  0  0  0  0  0  0  0  0  0
  1  2  1  0
  2  3  2  0
  3  4  1  0
  4  5  2  0
  5  6  1  0
  6  7  1  0
  7  8  1  0
  8  9  2  0
  9 10  1  0
 10 11  2  0
 11 12  1  0
 12 13  1  0
 12 14  2  0
 14 15  1  0
 15 16  2  0
 15 17  1  0
 17 18  1  0
  5 19  1  0
 19 20  2  0
 20 21  1  0
 21 22  1  0
 22 23  1  0
 23 24  1  0
 24 25  1  0
 20  2  1  0
 25 21  1  0
 17  6  2  0
 14  8  1  0
  1 26  1  0
  1 27  1  0
  1 28  1  0
  3 29  1  0
  4 30  1  0
  9 31  1  0
 10 32  1  0
 11 33  1  0
 13 34  1  0
 18 35  1  0
 19 36  1  0
 22 37  1  0
 22 38  1  0
 23 39  1  0
 23 40  1  0
 24 41  1  0
 24 42  1  0
 25 43  1  0
 25 44  1  0
M  END
>  <meeko>  (4) 
{"is_sidechain": [false], "free_energy": -9.068, "intermolecular_energy": -10.912, "internal_energy": 0.583}

$$$$
