cand_014_out
     RDKit          3D

 35 37  0  0  0  0  0  0  0  0999 V2000
   50.0870  161.1950   31.6020 C   0  0  0  0  0  0  0  0  0  0  0  0
   50.5250  159.9470   30.8850 C   0  0  0  0  0  0  0  0  0  0  0  0
   51.8300  159.8770   30.3750 C   0  0  0  0  0  0  0  0  0  0  0  0
   52.2740  158.7420   29.6930 C   0  0  0  0  0  0  0  0  0  0  0  0
   51.4270  157.6450   29.5040 C   0  0  0  0  0  0  0  0  0  0  0  0
   51.9100  156.4600   28.7640 C   0  0  0  0  0  0  0  0  0  0  0  0
   52.5010  156.7840   27.5490 O   0  0  0  0  0  0  0  0  0  0  0  0
   52.9900  155.7740   26.7610 C   0  0  0  0  0  0  0  0  0  0  0  0
   53.5600  156.1400   25.5410 C   0  0  0  0  0  0  0  0  0  0  0  0
   54.0790  155.1610   24.6920 C   0  0  0  0  0  0  0  0  0  0  0  0
   54.0290  153.8150   25.0620 C   0  0  0  0  0  0  0  0  0  0  0  0
   53.4610  153.4520   26.2800 C   0  0  0  0  0  0  0  0  0  0  0  0
   53.4460  152.1180   26.5810 O   0  0  0  0  0  0  0  0  0  0  0  0
   52.9410  154.4320   27.1290 C   0  0  0  0  0  0  0  0  0  0  0  0
   52.3350  154.0930   28.4170 C   0  0  0  0  0  0  0  0  0  0  0  0
   52.2610  152.9330   28.8180 O   0  0  0  0  0  0  0  0  0  0  0  0
   51.8040  155.2050   29.2390 C   0  0  0  0  0  0  0  0  0  0  0  0
   51.2460  154.8770   30.4600 O   0  0  0  0  0  0  0  0  0  0  0  0
   50.1160  157.7230   29.9930 C   0  0  0  0  0  0  0  0  0  0  0  0
   49.6470  158.8620   30.6770 C   0  0  0  0  0  0  0  0  0  0  0  0
   48.2290  158.8700   31.2020 C   0  0  0  0  0  0  0  0  0  0  0  0
   47.4620  159.8700   30.6800 F   0  0  0  0  0  0  0  0  0  0  0  0
   48.1580  159.0310   32.5530 F   0  0  0  0  0  0  0  0  0  0  0  0
   50.1439  161.0328   32.6885 H   0  0  0  0  0  0  0  0  0  0  0  0
   50.7459  162.0298   31.3209 H   0  0  0  0  0  0  0  0  0  0  0  0
   49.0509  161.4349   31.3209 H   0  0  0  0  0  0  0  0  0  0  0  0
   52.5131  160.7279   30.5142 H   0  0  0  0  0  0  0  0  0  0  0  0
   53.3010  158.7104   29.3002 H   0  0  0  0  0  0  0  0  0  0  0  0
   53.6003  157.1996   25.2484 H   0  0  0  0  0  0  0  0  0  0  0  0
   54.5280  155.4499   23.7303 H   0  0  0  0  0  0  0  0  0  0  0  0
   54.4375  153.0437   24.3925 H   0  0  0  0  0  0  0  0  0  0  0  0
   53.2180  151.4910   25.9210 H   0  0  0  0  0  0  0  0  0  0  0  0
   50.5740  154.2260   30.5090 H   0  0  0  0  0  0  0  0  0  0  0  0
   49.4353  156.8728   29.8388 H   0  0  0  0  0  0  0  0  0  0  0  0
   47.8517  157.8829   30.8966 H   0  0  0  0  0  0  0  0  0  0  0  0
  1  2  1  0
  2  3  2  0
  3  4  1  0
  4  5  2  0
  5  6  1  0
  6  7  1  0
  7  8  1  0
  8  9  2  0
  9 10  1  0
 10 11  2  0
 11 12  1  0
 12 13  1  0
 12 14  2  0
 14 15  1  0
 15 16  2  0
 15 17  1  0
 17 18  1  0
  5 19  1  0
 19 20  2  0
 20 21  1  0
 21 22  1  0
 21 23  1  0
 20  2  1  0
 17  6  2  0
 14  8  1  0
  1 24  1  0
  1 25  1  0
  1 26  1  0
  3 27  1  0
  4 28  1  0
  9 29  1  0
 10 30  1  0
 11 31  1  0
 13 32  1  0
 18 33  1  0
 19 34  1  0
 21 35  1  0
M  END
>  <meeko>  (1) 
{"is_sidechain": [false], "free_energy": -11.63, "intermolecular_energy": -13.67, "internal_energy": -0.139}

$$$$
cand_014_out
     RDKit          3D

 35 37  0  0  0  0  0  0  0  0999 V2000
   52.7090  152.8830   27.0540 C   0  0  0  0  0  0  0  0  0  0  0  0
   52.3430  154.1840   27.7150 C   0  0  0  0  0  0  0  0  0  0  0  0
   51.6380  154.1560   28.9270 C   0  0  0  0  0  0  0  0  0  0  0  0
   51.2690  155.3400   29.5690 C   0  0  0  0  0  0  0  0  0  0  0  0
   51.5950  156.5840   29.0190 C   0  0  0  0  0  0  0  0  0  0  0  0
   51.1790  157.8250   29.7050 C   0  0  0  0  0  0  0  0  0  0  0  0
   49.8670  157.7790   30.1600 O   0  0  0  0  0  0  0  0  0  0  0  0
   49.3550  158.8710   30.8130 C   0  0  0  0  0  0  0  0  0  0  0  0
   48.0280  158.7910   31.2380 C   0  0  0  0  0  0  0  0  0  0  0  0
   47.4460  159.8660   31.9110 C   0  0  0  0  0  0  0  0  0  0  0  0
   48.1890  161.0220   32.1600 C   0  0  0  0  0  0  0  0  0  0  0  0
   49.5120  161.1000   31.7350 C   0  0  0  0  0  0  0  0  0  0  0  0
   50.1830  162.2600   32.0120 O   0  0  0  0  0  0  0  0  0  0  0  0
   50.0950  160.0240   31.0610 C   0  0  0  0  0  0  0  0  0  0  0  0
   51.4820  160.0650   30.5970 C   0  0  0  0  0  0  0  0  0  0  0  0
   52.2040  161.0420   30.7850 O   0  0  0  0  0  0  0  0  0  0  0  0
   52.0020  158.8750   29.8840 C   0  0  0  0  0  0  0  0  0  0  0  0
   53.3180  158.9170   29.4620 O   0  0  0  0  0  0  0  0  0  0  0  0
   52.2800  156.6120   27.7960 C   0  0  0  0  0  0  0  0  0  0  0  0
   52.6550  155.4290   27.1300 C   0  0  0  0  0  0  0  0  0  0  0  0
   53.4150  155.5310   25.8270 C   0  0  0  0  0  0  0  0  0  0  0  0
   54.0400  156.7310   25.6560 F   0  0  0  0  0  0  0  0  0  0  0  0
   52.6240  155.3780   24.7290 F   0  0  0  0  0  0  0  0  0  0  0  0
   52.9216  152.1273   27.8245 H   0  0  0  0  0  0  0  0  0  0  0  0
   51.8719  152.5420   26.4271 H   0  0  0  0  0  0  0  0  0  0  0  0
   53.6011  153.0285   26.4271 H   0  0  0  0  0  0  0  0  0  0  0  0
   51.3721  153.1886   29.3779 H   0  0  0  0  0  0  0  0  0  0  0  0
   50.7154  155.2937   30.5184 H   0  0  0  0  0  0  0  0  0  0  0  0
   47.4414  157.8812   31.0426 H   0  0  0  0  0  0  0  0  0  0  0  0
   46.4002  159.8028   32.2460 H   0  0  0  0  0  0  0  0  0  0  0  0
   47.7296  161.8689   32.6908 H   0  0  0  0  0  0  0  0  0  0  0  0
   50.5380  162.7750   31.3130 H   0  0  0  0  0  0  0  0  0  0  0  0
   53.9320  158.2820   29.7750 H   0  0  0  0  0  0  0  0  0  0  0  0
   52.5311  157.5833   27.3448 H   0  0  0  0  0  0  0  0  0  0  0  0
   54.1457  154.7128   25.9086 H   0  0  0  0  0  0  0  0  0  0  0  0
  1  2  1  0
  2  3  2  0
  3  4  1  0
  4  5  2  0
  5  6  1  0
  6  7  1  0
  7  8  1  0
  8  9  2  0
  9 10  1  0
 10 11  2  0
 11 12  1  0
 12 13  1  0
 12 14  2  0
 14 15  1  0
 15 16  2  0
 15 17  1  0
 17 18  1  0
  5 19  1  0
 19 20  2  0
 20 21  1  0
 21 22  1  0
 21 23  1  0
 20  2  1  0
 17  6  2  0
 14  8  1  0
  1 24  1  0
  1 25  1  0
  1 26  1  0
  3 27  1  0
  4 28  1  0
  9 29  1  0
 10 30  1  0
 11 31  1  0
 13 32  1  0
 18 33  1  0
 19 34  1  0
 21 35  1  0
M  END
>  <meeko>  (2) 
{"is_sidechain": [false], "free_energy": -11.117, "intermolecular_energy": -12.946, "internal_energy": -0.259}

$$$$
cand_014_out
     RDKit          3D

 35 37  0  0  0  0  0  0  0  0999 V2000
   48.9920  160.1820   31.6410 C   0  0  0  0  0  0  0  0  0  0  0  0
   49.7480  159.1610   30.8340 C   0  0  0  0  0  0  0  0  0  0  0  0
   49.1090  157.9650   30.4790 C   0  0  0  0  0  0  0  0  0  0  0  0
   49.7780  156.9860   29.7400 C   0  0  0  0  0  0  0  0  0  0  0  0
   51.1030  157.1760   29.3360 C   0  0  0  0  0  0  0  0  0  0  0  0
   51.7990  156.1210   28.5710 C   0  0  0  0  0  0  0  0  0  0  0  0
   52.3600  156.5890   27.3890 O   0  0  0  0  0  0  0  0  0  0  0  0
   53.0330  155.7070   26.5820 C   0  0  0  0  0  0  0  0  0  0  0  0
   53.5660  156.2140   25.3960 C   0  0  0  0  0  0  0  0  0  0  0  0
   54.2660  155.3710   24.5310 C   0  0  0  0  0  0  0  0  0  0  0  0
   54.4330  154.0210   24.8510 C   0  0  0  0  0  0  0  0  0  0  0  0
   53.9010  153.5190   26.0340 C   0  0  0  0  0  0  0  0  0  0  0  0
   54.1020  152.1890   26.2860 O   0  0  0  0  0  0  0  0  0  0  0  0
   53.2000  154.3620   26.9000 C   0  0  0  0  0  0  0  0  0  0  0  0
   52.6240  153.8740   28.1530 C   0  0  0  0  0  0  0  0  0  0  0  0
   52.7360  152.7020   28.5100 O   0  0  0  0  0  0  0  0  0  0  0  0
   51.8920  154.8470   28.9970 C   0  0  0  0  0  0  0  0  0  0  0  0
   51.3640  154.3800   30.1850 O   0  0  0  0  0  0  0  0  0  0  0  0
   51.7500  158.3630   29.7100 C   0  0  0  0  0  0  0  0  0  0  0  0
   51.0940  159.3580   30.4610 C   0  0  0  0  0  0  0  0  0  0  0  0
   51.8420  160.6260   30.8090 C   0  0  0  0  0  0  0  0  0  0  0  0
   51.7310  160.9800   32.1210 F   0  0  0  0  0  0  0  0  0  0  0  0
   51.4140  161.7120   30.1060 F   0  0  0  0  0  0  0  0  0  0  0  0
   49.1387  159.9838   32.7130 H   0  0  0  0  0  0  0  0  0  0  0  0
   49.3642  161.1887   31.3999 H   0  0  0  0  0  0  0  0  0  0  0  0
   47.9206  160.1197   31.3999 H   0  0  0  0  0  0  0  0  0  0  0  0
   48.0666  157.7949   30.7864 H   0  0  0  0  0  0  0  0  0  0  0  0
   49.2563  156.0551   29.4730 H   0  0  0  0  0  0  0  0  0  0  0  0
   53.4347  157.2765   25.1431 H   0  0  0  0  0  0  0  0  0  0  0  0
   54.6867  155.7700   23.5962 H   0  0  0  0  0  0  0  0  0  0  0  0
   54.9840  153.3568   24.1688 H   0  0  0  0  0  0  0  0  0  0  0  0
   54.3540  151.6130   25.5900 H   0  0  0  0  0  0  0  0  0  0  0  0
   51.1350  154.9820   30.8660 H   0  0  0  0  0  0  0  0  0  0  0  0
   52.7962  158.5209   29.4092 H   0  0  0  0  0  0  0  0  0  0  0  0
   52.8817  160.3709   30.5563 H   0  0  0  0  0  0  0  0  0  0  0  0
  1  2  1  0
  2  3  2  0
  3  4  1  0
  4  5  2  0
  5  6  1  0
  6  7  1  0
  7  8  1  0
  8  9  2  0
  9 10  1  0
 10 11  2  0
 11 12  1  0
 12 13  1  0
 12 14  2  0
 14 15  1  0
 15 16  2  0
 15 17  1  0
 17 18  1  0
  5 19  1  0
 19 20  2  0
 20 21  1  0
 21 22  1  0
 21 23  1  0
 20  2  1  0
 17  6  2  0
 14  8  1  0
  1 24  1  0
  1 25  1  0
  1 26  1  0
  3 27  1  0
  4 28  1  0
  9 29  1  0
 10 30  1  0
 11 31  1  0
 13 32  1  0
 18 33  1  0
 19 34  1  0
 21 35  1  0
M  END
>  <meeko>  (3) 
{"is_sidechain": [false], "free_energy": -10.814, "intermolecular_energy": -12.769, "internal_energy": -0.081}

$$$$
cand_014_out
     RDKit          3D

 35 37  0  0  0  0  0  0  0  0999 V2000
   53.4500  154.2750   26.3700 C   0  0  0  0  0  0  0  0  0  0  0  0
   52.8560  155.3200   27.2750 C   0  0  0  0  0  0  0  0  0  0  0  0
   52.9750  156.6730   26.9220 C   0  0  0  0  0  0  0  0  0  0  0  0
   52.4480  157.6760   27.7390 C   0  0  0  0  0  0  0  0  0  0  0  0
   51.7870  157.3550   28.9290 C   0  0  0  0  0  0  0  0  0  0  0  0
   51.2520  158.4320   29.7880 C   0  0  0  0  0  0  0  0  0  0  0  0
   49.9190  158.2410   30.1300 O   0  0  0  0  0  0  0  0  0  0  0  0
   49.3000  159.1730   30.9230 C   0  0  0  0  0  0  0  0  0  0  0  0
   47.9560  158.9540   31.2290 C   0  0  0  0  0  0  0  0  0  0  0  0
   47.2670  159.8620   32.0340 C   0  0  0  0  0  0  0  0  0  0  0  0
   47.9200  160.9900   32.5350 C   0  0  0  0  0  0  0  0  0  0  0  0
   49.2610  161.2070   32.2290 C   0  0  0  0  0  0  0  0  0  0  0  0
   49.8390  162.3310   32.7530 O   0  0  0  0  0  0  0  0  0  0  0  0
   49.9500  160.2980   31.4230 C   0  0  0  0  0  0  0  0  0  0  0  0
   51.3590  160.4900   31.0770 C   0  0  0  0  0  0  0  0  0  0  0  0
   52.0060  161.4520   31.4850 O   0  0  0  0  0  0  0  0  0  0  0  0
   51.9960  159.4720   30.2080 C   0  0  0  0  0  0  0  0  0  0  0  0
   53.3310  159.6540   29.8980 O   0  0  0  0  0  0  0  0  0  0  0  0
   51.6880  156.0050   29.2930 C   0  0  0  0  0  0  0  0  0  0  0  0
   52.2190  154.9800   28.4870 C   0  0  0  0  0  0  0  0  0  0  0  0
   52.0540  153.5420   28.9260 C   0  0  0  0  0  0  0  0  0  0  0  0
   51.2540  152.8100   28.0990 F   0  0  0  0  0  0  0  0  0  0  0  0
   51.5000  153.4190   30.1640 F   0  0  0  0  0  0  0  0  0  0  0  0
   53.9030  153.4780   26.9780 H   0  0  0  0  0  0  0  0  0  0  0  0
   52.6598  153.8477   25.7352 H   0  0  0  0  0  0  0  0  0  0  0  0
   54.2214  154.7353   25.7352 H   0  0  0  0  0  0  0  0  0  0  0  0
   53.4901  156.9473   25.9896 H   0  0  0  0  0  0  0  0  0  0  0  0
   52.5541  158.7301   27.4431 H   0  0  0  0  0  0  0  0  0  0  0  0
   47.4399  158.0658   30.8357 H   0  0  0  0  0  0  0  0  0  0  0  0
   46.2076  159.6889   32.2743 H   0  0  0  0  0  0  0  0  0  0  0  0
   47.3765  161.7053   33.1697 H   0  0  0  0  0  0  0  0  0  0  0  0
   49.4060  162.8060   33.4350 H   0  0  0  0  0  0  0  0  0  0  0  0
   53.8710  158.9150   29.6980 H   0  0  0  0  0  0  0  0  0  0  0  0
   51.1822  155.7395   30.2330 H   0  0  0  0  0  0  0  0  0  0  0  0
   53.0869  153.1640   28.9115 H   0  0  0  0  0  0  0  0  0  0  0  0
  1  2  1  0
  2  3  2  0
  3  4  1  0
  4  5  2  0
  5  6  1  0
  6  7  1  0
  7  8  1  0
  8  9  2  0
  9 10  1  0
 10 11  2  0
 11 12  1  0
 12 13  1  0
 12 14  2  0
 14 15  1  0
 15 16  2  0
 15 17  1  0
 17 18  1  0
  5 19  1  0
 19 20  2  0
 20 21  1  0
 21 22  1  0
 21 23  1  0
 20  2  1  0
 17  6  2  0
 14  8  1  0
  1 24  1  0
  1 25  1  0
  1 26  1  0
  3 27  1  0
  4 28  1  0
  9 29  1  0
 10 30  1  0
 11 31  1  0
 13 32  1  0
 18 33  1  0
 19 34  1  0
 21 35  1  0
M  END
>  <meeko>  (4) 
{"is_sidechain": [false], "free_energy": -9.722, "intermolecular_energy": -11.331, "internal_energy": -0.235}

$$$$
cand_014_out
     RDKit          3D

 35 37  0  0  0  0  0  0  0  0999 V2000
   53.3650  152.0210   25.2650 C   0  0  0  0  0  0  0  0  0  0  0  0
   53.0200  153.2310   26.0890 C   0  0  0  0  0  0  0  0  0  0  0  0
   52.1440  153.0880   27.1750 C   0  0  0  0  0  0  0  0  0  0  0  0
   51.7880  154.1880   27.9590 C   0  0  0  0  0  0  0  0  0  0  0  0
   52.3000  155.4600   27.6810 C   0  0  0  0  0  0  0  0  0  0  0  0
   51.8970  156.6140   28.5120 C   0  0  0  0  0  0  0  0  0  0  0  0
   50.6170  156.4840   29.0350 O   0  0  0  0  0  0  0  0  0  0  0  0
   50.1190  157.4900   29.8230 C   0  0  0  0  0  0  0  0  0  0  0  0
   48.8230  157.3300   30.3130 C   0  0  0  0  0  0  0  0  0  0  0  0
   48.2570  158.3150   31.1250 C   0  0  0  0  0  0  0  0  0  0  0  0
   48.9870  159.4610   31.4460 C   0  0  0  0  0  0  0  0  0  0  0  0
   50.2800  159.6200   30.9560 C   0  0  0  0  0  0  0  0  0  0  0  0
   50.9390  160.7650   31.3110 O   0  0  0  0  0  0  0  0  0  0  0  0
   50.8460  158.6340   30.1440 C   0  0  0  0  0  0  0  0  0  0  0  0
   52.2020  158.7610   29.6080 C   0  0  0  0  0  0  0  0  0  0  0  0
   52.9110  159.7350   29.8530 O   0  0  0  0  0  0  0  0  0  0  0  0
   52.7060  157.6640   28.7500 C   0  0  0  0  0  0  0  0  0  0  0  0
   53.9920  157.7860   28.2590 O   0  0  0  0  0  0  0  0  0  0  0  0
   53.1580  155.6070   26.5820 C   0  0  0  0  0  0  0  0  0  0  0  0
   53.5220  154.5120   25.7750 C   0  0  0  0  0  0  0  0  0  0  0  0
   54.4740  154.7360   24.6210 C   0  0  0  0  0  0  0  0  0  0  0  0
   55.7320  154.2640   24.8550 F   0  0  0  0  0  0  0  0  0  0  0  0
   54.6360  156.0510   24.3070 F   0  0  0  0  0  0  0  0  0  0  0  0
   53.6049  151.1796   25.9317 H   0  0  0  0  0  0  0  0  0  0  0  0
   52.5075  151.7529   24.6303 H   0  0  0  0  0  0  0  0  0  0  0  0
   54.2349  152.2455   24.6303 H   0  0  0  0  0  0  0  0  0  0  0  0
   51.7317  152.0962   27.4126 H   0  0  0  0  0  0  0  0  0  0  0  0
   51.0974  154.0526   28.8044 H   0  0  0  0  0  0  0  0  0  0  0  0
   48.2467  156.4279   30.0598 H   0  0  0  0  0  0  0  0  0  0  0  0
   47.2352  158.1879   31.5120 H   0  0  0  0  0  0  0  0  0  0  0  0
   48.5409  160.2371   32.0852 H   0  0  0  0  0  0  0  0  0  0  0  0
   51.8550  160.8540   31.1300 H   0  0  0  0  0  0  0  0  0  0  0  0
   54.6420  157.1490   28.4810 H   0  0  0  0  0  0  0  0  0  0  0  0
   53.5573  156.6039   26.3439 H   0  0  0  0  0  0  0  0  0  0  0  0
   53.9929  154.1854   23.7992 H   0  0  0  0  0  0  0  0  0  0  0  0
  1  2  1  0
  2  3  2  0
  3  4  1  0
  4  5  2  0
  5  6  1  0
  6  7  1  0
  7  8  1  0
  8  9  2  0
  9 10  1  0
 10 11  2  0
 11 12  1  0
 12 13  1  0
 12 14  2  0
 14 15  1  0
 15 16  2  0
 15 17  1  0
 17 18  1  0
  5 19  1  0
 19 20  2  0
 20 21  1  0
 21 22  1  0
 21 23  1  0
 20  2  1  0
 17  6  2  0
 14  8  1  0
  1 24  1  0
  1 25  1  0
  1 26  1  0
  3 27  1  0
  4 28  1  0
  9 29  1  0
 10 30  1  0
 11 31  1  0
 13 32  1  0
 18 33  1  0
 19 34  1  0
 21 35  1  0
M  END
>  <meeko>  (5) 
{"is_sidechain": [false], "free_energy": -9.273, "intermolecular_energy": -10.955, "internal_energy": -0.084}

$$$$
cand_014_out
     RDKit          3D

 35 37  0  0  0  0  0  0  0  0999 V2000
   53.6300  152.6130   26.5730 C   0  0  0  0  0  0  0  0  0  0  0  0
   52.9820  153.7810   27.2650 C   0  0  0  0  0  0  0  0  0  0  0  0
   52.2760  153.5590   28.4570 C   0  0  0  0  0  0  0  0  0  0  0  0
   51.6500  154.6130   29.1260 C   0  0  0  0  0  0  0  0  0  0  0  0
   51.7130  155.9170   28.6240 C   0  0  0  0  0  0  0  0  0  0  0  0
   51.0280  157.0150   29.3380 C   0  0  0  0  0  0  0  0  0  0  0  0
   51.8640  158.0920   29.6040 O   0  0  0  0  0  0  0  0  0  0  0  0
   51.3520  159.1790   30.2660 C   0  0  0  0  0  0  0  0  0  0  0  0
   52.2290  160.2320   30.5290 C   0  0  0  0  0  0  0  0  0  0  0  0
   51.7710  161.3690   31.1970 C   0  0  0  0  0  0  0  0  0  0  0  0
   50.4380  161.4550   31.6020 C   0  0  0  0  0  0  0  0  0  0  0  0
   49.5650  160.4030   31.3390 C   0  0  0  0  0  0  0  0  0  0  0  0
   48.2730  160.5520   31.7620 O   0  0  0  0  0  0  0  0  0  0  0  0
   50.0230  159.2650   30.6710 C   0  0  0  0  0  0  0  0  0  0  0  0
   49.1380  158.1370   30.3750 C   0  0  0  0  0  0  0  0  0  0  0  0
   47.9500  158.1390   30.6900 O   0  0  0  0  0  0  0  0  0  0  0  0
   49.7240  156.9730   29.6690 C   0  0  0  0  0  0  0  0  0  0  0  0
   48.8780  155.9180   29.3820 O   0  0  0  0  0  0  0  0  0  0  0  0
   52.3980  156.1350   27.4210 C   0  0  0  0  0  0  0  0  0  0  0  0
   53.0300  155.0840   26.7280 C   0  0  0  0  0  0  0  0  0  0  0  0
   53.7750  155.3930   25.4490 C   0  0  0  0  0  0  0  0  0  0  0  0
   53.9400  156.7290   25.2260 F   0  0  0  0  0  0  0  0  0  0  0  0
   53.1520  154.9170   24.3350 F   0  0  0  0  0  0  0  0  0  0  0  0
   54.0194  151.9112   27.3252 H   0  0  0  0  0  0  0  0  0  0  0  0
   52.8869  152.1012   25.9439 H   0  0  0  0  0  0  0  0  0  0  0  0
   54.4576  152.9726   25.9439 H   0  0  0  0  0  0  0  0  0  0  0  0
   52.2148  152.5413   28.8700 H   0  0  0  0  0  0  0  0  0  0  0  0
   51.1010  154.4154   30.0585 H   0  0  0  0  0  0  0  0  0  0  0  0
   53.2798  160.1662   30.2104 H   0  0  0  0  0  0  0  0  0  0  0  0
   52.4622  162.1991   31.4047 H   0  0  0  0  0  0  0  0  0  0  0  0
   50.0782  162.3518   32.1277 H   0  0  0  0  0  0  0  0  0  0  0  0
   48.0790  160.5660   32.6800 H   0  0  0  0  0  0  0  0  0  0  0  0
   48.2070  155.6760   29.9890 H   0  0  0  0  0  0  0  0  0  0  0  0
   52.4433  157.1532   27.0072 H   0  0  0  0  0  0  0  0  0  0  0  0
   54.7436  154.8961   25.6071 H   0  0  0  0  0  0  0  0  0  0  0  0
  1  2  1  0
  2  3  2  0
  3  4  1  0
  4  5  2  0
  5  6  1  0
  6  7  1  0
  7  8  1  0
  8  9  2  0
  9 10  1  0
 10 11  2  0
 11 12  1  0
 12 13  1  0
 12 14  2  0
 14 15  1  0
 15 16  2  0
 15 17  1  0
 17 18  1  0
  5 19  1  0
 19 20  2  0
 20 21  1  0
 21 22  1  0
 21 23  1  0
 20  2  1  0
 17  6  2  0
 14  8  1  0
  1 24  1  0
  1 25  1  0
  1 26  1  0
  3 27  1  0
  4 28  1  0
  9 29  1  0
 10 30  1  0
 11 31  1  0
 13 32  1  0
 18 33  1  0
 19 34  1  0
 21 35  1  0
M  END
>  <meeko>  (6) 
{"is_sidechain": [false], "free_energy": -9.258, "intermolecular_energy": -10.738, "internal_energy": -0.283}

$$$$
