cand_013_out
     RDKit          3D

 50 53  0  0  0  0  0  0  0  0999 V2000
   54.2790  151.7380   23.6610 C   0  0  0  0  0  0  0  0  0  0  0  0
   53.6720  152.9040   24.3000 N   0  0  0  0  0  0  0  0  0  0  0  0
   52.7850  152.4840   25.4110 C   0  0  0  0  0  0  0  0  0  0  0  0
   52.1620  153.6870   26.1580 C   0  0  0  0  0  0  0  0  0  0  0  0
   53.2340  154.5780   26.6620 N   0  0  0  0  0  0  0  0  0  0  0  0
   52.7520  155.6220   27.4680 C   0  0  0  0  0  0  0  0  0  0  0  0
   52.9190  156.9710   27.1180 C   0  0  0  0  0  0  0  0  0  0  0  0
   52.4290  157.9980   27.9300 C   0  0  0  0  0  0  0  0  0  0  0  0
   51.7490  157.7070   29.1160 C   0  0  0  0  0  0  0  0  0  0  0  0
   51.2440  158.7720   30.0060 C   0  0  0  0  0  0  0  0  0  0  0  0
   49.9130  158.5900   30.3650 O   0  0  0  0  0  0  0  0  0  0  0  0
   49.3160  159.5110   31.1880 C   0  0  0  0  0  0  0  0  0  0  0  0
   47.9830  159.2820   31.5310 C   0  0  0  0  0  0  0  0  0  0  0  0
   47.3150  160.1820   32.3670 C   0  0  0  0  0  0  0  0  0  0  0  0
   47.9790  161.3080   32.8560 C   0  0  0  0  0  0  0  0  0  0  0  0
   49.3090  161.5320   32.5130 C   0  0  0  0  0  0  0  0  0  0  0  0
   49.9000  162.6550   33.0270 O   0  0  0  0  0  0  0  0  0  0  0  0
   49.9770  160.6330   31.6770 C   0  0  0  0  0  0  0  0  0  0  0  0
   51.3750  160.8330   31.2900 C   0  0  0  0  0  0  0  0  0  0  0  0
   52.0250  161.8020   31.6740 O   0  0  0  0  0  0  0  0  0  0  0  0
   51.9920  159.8170   30.4060 C   0  0  0  0  0  0  0  0  0  0  0  0
   53.3070  160.0240   30.0340 O   0  0  0  0  0  0  0  0  0  0  0  0
   51.5880  156.3610   29.4730 C   0  0  0  0  0  0  0  0  0  0  0  0
   52.0780  155.3150   28.6620 C   0  0  0  0  0  0  0  0  0  0  0  0
   51.8760  153.8810   29.0860 C   0  0  0  0  0  0  0  0  0  0  0  0
   51.4660  153.7690   30.3880 F   0  0  0  0  0  0  0  0  0  0  0  0
   53.0080  153.1220   29.0140 F   0  0  0  0  0  0  0  0  0  0  0  0
   50.9220  153.2240   28.3650 F   0  0  0  0  0  0  0  0  0  0  0  0
   54.1220  155.0330   25.5650 C   0  0  0  0  0  0  0  0  0  0  0  0
   54.7180  153.8100   24.8290 C   0  0  0  0  0  0  0  0  0  0  0  0
   54.6406  151.0433   24.4334 H   0  0  0  0  0  0  0  0  0  0  0  0
   53.5299  151.2319   23.0343 H   0  0  0  0  0  0  0  0  0  0  0  0
   55.1233  152.0613   23.0343 H   0  0  0  0  0  0  0  0  0  0  0  0
   53.1210  153.3970   23.5970 H   0  0  0  0  0  0  0  0  0  0  0  0
   51.9737  151.8651   25.0002 H   0  0  0  0  0  0  0  0  0  0  0  0
   53.3960  151.9221   26.1327 H   0  0  0  0  0  0  0  0  0  0  0  0
   51.5148  154.2489   25.4686 H   0  0  0  0  0  0  0  0  0  0  0  0
   51.5686  153.3179   27.0075 H   0  0  0  0  0  0  0  0  0  0  0  0
   53.4458  157.2251   26.1864 H   0  0  0  0  0  0  0  0  0  0  0  0
   52.5802  159.0462   27.6325 H   0  0  0  0  0  0  0  0  0  0  0  0
   47.4589  158.3955   31.1446 H   0  0  0  0  0  0  0  0  0  0  0  0
   46.2646  160.0023   32.6397 H   0  0  0  0  0  0  0  0  0  0  0  0
   47.4520  162.0171   33.5113 H   0  0  0  0  0  0  0  0  0  0  0  0
   50.7410  162.5960   33.4370 H   0  0  0  0  0  0  0  0  0  0  0  0
   53.9110  159.3070   30.0270 H   0  0  0  0  0  0  0  0  0  0  0  0
   51.0663  156.1137   30.4093 H   0  0  0  0  0  0  0  0  0  0  0  0
   53.5420  155.6396   24.8540 H   0  0  0  0  0  0  0  0  0  0  0  0
   54.9397  155.6357   25.9871 H   0  0  0  0  0  0  0  0  0  0  0  0
   55.3327  154.1678   23.9899 H   0  0  0  0  0  0  0  0  0  0  0  0
   55.3181  153.2416   25.5548 H   0  0  0  0  0  0  0  0  0  0  0  0
  1  2  1  0
  2  3  1  0
  3  4  1  0
  4  5  1  0
  5  6  1  0
  6  7  2  0
  7  8  1  0
  8  9  2  0
  9 10  1  0
 10 11  1  0
 11 12  1  0
 12 13  2  0
 13 14  1  0
 14 15  2  0
 15 16  1  0
 16 17  1  0
 16 18  2  0
 18 19  1  0
 19 20  2  0
 19 21  1  0
 21 22  1  0
  9 23  1  0
 23 24  2  0
 24 25  1  0
 25 26  1  0
 25 27  1  0
 25 28  1  0
  5 29  1  0
 29 30  1  0
 30  2  1  0
 24  6  1  0
 21 10  2  0
 18 12  1  0
  1 31  1  0
  1 32  1  0
  1 33  1  0
  2 34  1  0
  3 35  1  0
  3 36  1  0
  4 37  1  0
  4 38  1  0
  7 39  1  0
  8 40  1  0
 13 41  1  0
 14 42  1  0
 15 43  1  0
 17 44  1  0
 22 45  1  0
 23 46  1  0
 29 47  1  0
 29 48  1  0
 30 49  1  0
 30 50  1  0
M  CHG  1   2   1
M  END
>  <meeko>  (1) 
{"is_sidechain": [false], "free_energy": -9.855, "intermolecular_energy": -12.159, "internal_energy": 0.858}

$$$$
cand_013_out
     RDKit          3D

 50 53  0  0  0  0  0  0  0  0999 V2000
   54.1550  150.8160   24.0750 C   0  0  0  0  0  0  0  0  0  0  0  0
   53.4170  151.7460   24.9270 N   0  0  0  0  0  0  0  0  0  0  0  0
   54.0590  151.8530   26.2580 C   0  0  0  0  0  0  0  0  0  0  0  0
   53.3460  152.8710   27.1800 C   0  0  0  0  0  0  0  0  0  0  0  0
   53.2970  154.1980   26.5210 N   0  0  0  0  0  0  0  0  0  0  0  0
   52.7850  155.2090   27.3520 C   0  0  0  0  0  0  0  0  0  0  0  0
   51.9970  154.9210   28.4760 C   0  0  0  0  0  0  0  0  0  0  0  0
   51.5000  155.9390   29.2950 C   0  0  0  0  0  0  0  0  0  0  0  0
   51.7820  157.2790   29.0170 C   0  0  0  0  0  0  0  0  0  0  0  0
   51.2470  158.3780   29.8490 C   0  0  0  0  0  0  0  0  0  0  0  0
   49.9070  158.2030   30.1780 O   0  0  0  0  0  0  0  0  0  0  0  0
   49.2840  159.1530   30.9450 C   0  0  0  0  0  0  0  0  0  0  0  0
   47.9430  158.9320   31.2600 C   0  0  0  0  0  0  0  0  0  0  0  0
   47.2480  159.8610   32.0390 C   0  0  0  0  0  0  0  0  0  0  0  0
   47.8930  161.0100   32.5000 C   0  0  0  0  0  0  0  0  0  0  0  0
   49.2320  161.2270   32.1850 C   0  0  0  0  0  0  0  0  0  0  0  0
   49.8020  162.3730   32.6680 O   0  0  0  0  0  0  0  0  0  0  0  0
   49.9260  160.2980   31.4060 C   0  0  0  0  0  0  0  0  0  0  0  0
   51.3330  160.4900   31.0500 C   0  0  0  0  0  0  0  0  0  0  0  0
   51.9680  161.4770   31.4120 O   0  0  0  0  0  0  0  0  0  0  0  0
   51.9800  159.4420   30.2260 C   0  0  0  0  0  0  0  0  0  0  0  0
   53.3040  159.6400   29.8820 O   0  0  0  0  0  0  0  0  0  0  0  0
   52.5620  157.5710   27.8890 C   0  0  0  0  0  0  0  0  0  0  0  0
   53.0700  156.5520   27.0550 C   0  0  0  0  0  0  0  0  0  0  0  0
   53.9090  156.9160   25.8550 C   0  0  0  0  0  0  0  0  0  0  0  0
   54.7390  155.8990   25.4640 F   0  0  0  0  0  0  0  0  0  0  0  0
   54.7400  157.9780   26.0680 F   0  0  0  0  0  0  0  0  0  0  0  0
   53.1770  157.2140   24.7420 F   0  0  0  0  0  0  0  0  0  0  0  0
   52.6360  154.1230   25.1970 C   0  0  0  0  0  0  0  0  0  0  0  0
   53.3610  153.0890   24.3040 C   0  0  0  0  0  0  0  0  0  0  0  0
   54.7160  150.1090   24.7038 H   0  0  0  0  0  0  0  0  0  0  0  0
   53.4487  150.2612   23.4399 H   0  0  0  0  0  0  0  0  0  0  0  0
   54.8558  151.3778   23.4399 H   0  0  0  0  0  0  0  0  0  0  0  0
   52.4690  151.3850   25.0380 H   0  0  0  0  0  0  0  0  0  0  0  0
   54.0374  150.8647   26.7405 H   0  0  0  0  0  0  0  0  0  0  0  0
   55.0895  152.2058   26.1045 H   0  0  0  0  0  0  0  0  0  0  0  0
   52.3213  152.5255   27.3817 H   0  0  0  0  0  0  0  0  0  0  0  0
   53.9019  152.9557   28.1254 H   0  0  0  0  0  0  0  0  0  0  0  0
   51.7655  153.8732   28.7179 H   0  0  0  0  0  0  0  0  0  0  0  0
   50.8806  155.6826   30.1671 H   0  0  0  0  0  0  0  0  0  0  0  0
   47.4334  158.0278   30.8957 H   0  0  0  0  0  0  0  0  0  0  0  0
   46.1911  159.6866   32.2893 H   0  0  0  0  0  0  0  0  0  0  0  0
   47.3447  161.7424   33.1108 H   0  0  0  0  0  0  0  0  0  0  0  0
   49.4460  162.7890   33.4300 H   0  0  0  0  0  0  0  0  0  0  0  0
   53.5210  160.1670   29.1390 H   0  0  0  0  0  0  0  0  0  0  0  0
   52.7837  158.6211   27.6479 H   0  0  0  0  0  0  0  0  0  0  0  0
   51.5873  153.8186   25.3297 H   0  0  0  0  0  0  0  0  0  0  0  0
   52.6785  155.1107   24.7147 H   0  0  0  0  0  0  0  0  0  0  0  0
   52.8255  153.0122   23.3462 H   0  0  0  0  0  0  0  0  0  0  0  0
   54.3950  153.4358   24.1607 H   0  0  0  0  0  0  0  0  0  0  0  0
  1  2  1  0
  2  3  1  0
  3  4  1  0
  4  5  1  0
  5  6  1  0
  6  7  2  0
  7  8  1  0
  8  9  2  0
  9 10  1  0
 10 11  1  0
 11 12  1  0
 12 13  2  0
 13 14  1  0
 14 15  2  0
 15 16  1  0
 16 17  1  0
 16 18  2  0
 18 19  1  0
 19 20  2  0
 19 21  1  0
 21 22  1  0
  9 23  1  0
 23 24  2  0
 24 25  1  0
 25 26  1  0
 25 27  1  0
 25 28  1  0
  5 29  1  0
 29 30  1  0
 30  2  1  0
 24  6  1  0
 21 10  2  0
 18 12  1  0
  1 31  1  0
  1 32  1  0
  1 33  1  0
  2 34  1  0
  3 35  1  0
  3 36  1  0
  4 37  1  0
  4 38  1  0
  7 39  1  0
  8 40  1  0
 13 41  1  0
 14 42  1  0
 15 43  1  0
 17 44  1  0
 22 45  1  0
 23 46  1  0
 29 47  1  0
 29 48  1  0
 30 49  1  0
 30 50  1  0
M  CHG  1   2   1
M  END
>  <meeko>  (2) 
{"is_sidechain": [false], "free_energy": -9.228, "intermolecular_energy": -11.281, "internal_energy": 0.753}

$$$$
cand_013_out
     RDKit          3D

 50 53  0  0  0  0  0  0  0  0999 V2000
   48.9930  162.9920   32.6870 C   0  0  0  0  0  0  0  0  0  0  0  0
   49.6800  162.1370   31.7220 N   0  0  0  0  0  0  0  0  0  0  0  0
   50.6710  161.2740   32.4060 C   0  0  0  0  0  0  0  0  0  0  0  0
   51.3870  160.3080   31.4320 C   0  0  0  0  0  0  0  0  0  0  0  0
   50.3860  159.4800   30.7180 N   0  0  0  0  0  0  0  0  0  0  0  0
   50.9640  158.4830   29.9140 C   0  0  0  0  0  0  0  0  0  0  0  0
   52.2820  158.5780   29.4430 C   0  0  0  0  0  0  0  0  0  0  0  0
   52.8440  157.5740   28.6490 C   0  0  0  0  0  0  0  0  0  0  0  0
   52.1050  156.4380   28.3070 C   0  0  0  0  0  0  0  0  0  0  0  0
   52.6640  155.3740   27.4470 C   0  0  0  0  0  0  0  0  0  0  0  0
   53.3520  155.8750   26.3470 O   0  0  0  0  0  0  0  0  0  0  0  0
   53.9190  154.9940   25.4620 C   0  0  0  0  0  0  0  0  0  0  0  0
   54.6100  155.5400   24.3790 C   0  0  0  0  0  0  0  0  0  0  0  0
   55.2110  154.6980   23.4410 C   0  0  0  0  0  0  0  0  0  0  0  0
   55.1210  153.3120   23.5840 C   0  0  0  0  0  0  0  0  0  0  0  0
   54.4320  152.7700   24.6660 C   0  0  0  0  0  0  0  0  0  0  0  0
   54.3820  151.4050   24.7450 O   0  0  0  0  0  0  0  0  0  0  0  0
   53.8310  153.6130   25.6050 C   0  0  0  0  0  0  0  0  0  0  0  0
   53.0960  153.0840   26.7550 C   0  0  0  0  0  0  0  0  0  0  0  0
   52.9670  151.8770   26.9470 O   0  0  0  0  0  0  0  0  0  0  0  0
   52.5010  154.0610   27.6950 C   0  0  0  0  0  0  0  0  0  0  0  0
   51.7960  153.5520   28.7690 O   0  0  0  0  0  0  0  0  0  0  0  0
   50.7850  156.3430   28.7690 C   0  0  0  0  0  0  0  0  0  0  0  0
   50.2070  157.3500   29.5720 C   0  0  0  0  0  0  0  0  0  0  0  0
   48.7830  157.2010   30.0500 C   0  0  0  0  0  0  0  0  0  0  0  0
   48.3230  155.9150   29.9420 F   0  0  0  0  0  0  0  0  0  0  0  0
   47.8860  157.9500   29.3450 F   0  0  0  0  0  0  0  0  0  0  0  0
   48.6090  157.5220   31.3650 F   0  0  0  0  0  0  0  0  0  0  0  0
   49.3960  160.3200   30.0040 C   0  0  0  0  0  0  0  0  0  0  0  0
   48.7080  161.2830   30.9990 C   0  0  0  0  0  0  0  0  0  0  0  0
   49.2497  162.6726   33.7078 H   0  0  0  0  0  0  0  0  0  0  0  0
   49.3062  164.0362   32.5399 H   0  0  0  0  0  0  0  0  0  0  0  0
   47.9059  162.9111   32.5399 H   0  0  0  0  0  0  0  0  0  0  0  0
   50.1610  162.7400   31.0550 H   0  0  0  0  0  0  0  0  0  0  0  0
   51.4255  161.9148   32.8857 H   0  0  0  0  0  0  0  0  0  0  0  0
   50.1302  160.6642   33.1446 H   0  0  0  0  0  0  0  0  0  0  0  0
   51.9672  160.8903   30.7011 H   0  0  0  0  0  0  0  0  0  0  0  0
   52.0607  159.6514   32.0021 H   0  0  0  0  0  0  0  0  0  0  0  0
   52.8853  159.4601   29.7037 H   0  0  0  0  0  0  0  0  0  0  0  0
   53.8784  157.6791   28.2897 H   0  0  0  0  0  0  0  0  0  0  0  0
   54.6810  156.6317   24.2646 H   0  0  0  0  0  0  0  0  0  0  0  0
   55.7564  155.1275   22.5877 H   0  0  0  0  0  0  0  0  0  0  0  0
   55.5933  152.6497   22.8436 H   0  0  0  0  0  0  0  0  0  0  0  0
   53.8200  150.9930   25.3730 H   0  0  0  0  0  0  0  0  0  0  0  0
   51.8360  152.6370   28.9650 H   0  0  0  0  0  0  0  0  0  0  0  0
   50.1845  155.4618   28.4991 H   0  0  0  0  0  0  0  0  0  0  0  0
   49.9077  160.9046   29.2253 H   0  0  0  0  0  0  0  0  0  0  0  0
   48.6361  159.6717   29.5432 H   0  0  0  0  0  0  0  0  0  0  0  0
   48.0147  161.9304   30.4421 H   0  0  0  0  0  0  0  0  0  0  0  0
   48.1780  160.6725   31.7448 H   0  0  0  0  0  0  0  0  0  0  0  0
  1  2  1  0
  2  3  1  0
  3  4  1  0
  4  5  1  0
  5  6  1  0
  6  7  2  0
  7  8  1  0
  8  9  2  0
  9 10  1  0
 10 11  1  0
 11 12  1  0
 12 13  2  0
 13 14  1  0
 14 15  2  0
 15 16  1  0
 16 17  1  0
 16 18  2  0
 18 19  1  0
 19 20  2  0
 19 21  1  0
 21 22  1  0
  9 23  1  0
 23 24  2  0
 24 25  1  0
 25 26  1  0
 25 27  1  0
 25 28  1  0
  5 29  1  0
 29 30  1  0
 30  2  1  0
 24  6  1  0
 21 10  2  0
 18 12  1  0
  1 31  1  0
  1 32  1  0
  1 33  1  0
  2 34  1  0
  3 35  1  0
  3 36  1  0
  4 37  1  0
  4 38  1  0
  7 39  1  0
  8 40  1  0
 13 41  1  0
 14 42  1  0
 15 43  1  0
 17 44  1  0
 22 45  1  0
 23 46  1  0
 29 47  1  0
 29 48  1  0
 30 49  1  0
 30 50  1  0
M  CHG  1   2   1
M  END
>  <meeko>  (3) 
{"is_sidechain": [false], "free_energy": -8.814, "intermolecular_energy": -10.286, "internal_energy": 0.269}

$$$$
cand_013_out
     RDKit          3D

 50 53  0  0  0  0  0  0  0  0999 V2000
   47.5210  162.7680   34.1320 C   0  0  0  0  0  0  0  0  0  0  0  0
   47.8860  161.5380   33.4320 N   0  0  0  0  0  0  0  0  0  0  0  0
   47.8290  161.7390   31.9650 C   0  0  0  0  0  0  0  0  0  0  0  0
   48.2630  160.4800   31.1770 C   0  0  0  0  0  0  0  0  0  0  0  0
   49.6260  160.0720   31.5910 N   0  0  0  0  0  0  0  0  0  0  0  0
   50.1450  159.0150   30.8230 C   0  0  0  0  0  0  0  0  0  0  0  0
   49.4260  157.8300   30.6070 C   0  0  0  0  0  0  0  0  0  0  0  0
   49.9550  156.7910   29.8370 C   0  0  0  0  0  0  0  0  0  0  0  0
   51.2180  156.9080   29.2500 C   0  0  0  0  0  0  0  0  0  0  0  0
   51.8130  155.8150   28.4530 C   0  0  0  0  0  0  0  0  0  0  0  0
   52.3120  156.2490   27.2300 O   0  0  0  0  0  0  0  0  0  0  0  0
   52.8890  155.3340   26.3870 C   0  0  0  0  0  0  0  0  0  0  0  0
   53.3870  155.8150   25.1760 C   0  0  0  0  0  0  0  0  0  0  0  0
   53.9880  154.9350   24.2710 C   0  0  0  0  0  0  0  0  0  0  0  0
   54.0900  153.5770   24.5780 C   0  0  0  0  0  0  0  0  0  0  0  0
   53.5930  153.1000   25.7880 C   0  0  0  0  0  0  0  0  0  0  0  0
   53.7250  151.7590   26.0250 O   0  0  0  0  0  0  0  0  0  0  0  0
   52.9920  153.9800   26.6930 C   0  0  0  0  0  0  0  0  0  0  0  0
   52.4560  153.5190   27.9740 C   0  0  0  0  0  0  0  0  0  0  0  0
   52.5020  152.3400   28.3140 O   0  0  0  0  0  0  0  0  0  0  0  0
   51.8450  154.5340   28.8650 C   0  0  0  0  0  0  0  0  0  0  0  0
   51.3270  154.0860   30.0660 O   0  0  0  0  0  0  0  0  0  0  0  0
   51.9420  158.0880   29.4710 C   0  0  0  0  0  0  0  0  0  0  0  0
   51.4190  159.1450   30.2470 C   0  0  0  0  0  0  0  0  0  0  0  0
   52.2350  160.3980   30.4520 C   0  0  0  0  0  0  0  0  0  0  0  0
   52.3210  160.7610   31.7700 F   0  0  0  0  0  0  0  0  0  0  0  0
   51.7220  161.4950   29.8230 F   0  0  0  0  0  0  0  0  0  0  0  0
   53.5300  160.2840   30.0380 F   0  0  0  0  0  0  0  0  0  0  0  0
   49.7040  159.8400   33.0530 C   0  0  0  0  0  0  0  0  0  0  0  0
   49.2520  161.1090   33.8120 C   0  0  0  0  0  0  0  0  0  0  0  0
   47.5707  162.6004   35.2180 H   0  0  0  0  0  0  0  0  0  0  0  0
   48.2198  163.5702   33.8524 H   0  0  0  0  0  0  0  0  0  0  0  0
   46.4977  163.0592   33.8524 H   0  0  0  0  0  0  0  0  0  0  0  0
   47.2180  160.8150   33.6990 H   0  0  0  0  0  0  0  0  0  0  0  0
   46.7963  161.9927   31.6836 H   0  0  0  0  0  0  0  0  0  0  0  0
   48.5281  162.5495   31.7113 H   0  0  0  0  0  0  0  0  0  0  0  0
   47.5587  159.6603   31.3821 H   0  0  0  0  0  0  0  0  0  0  0  0
   48.2640  160.7083   30.1009 H   0  0  0  0  0  0  0  0  0  0  0  0
   48.4266  157.7166   31.0523 H   0  0  0  0  0  0  0  0  0  0  0  0
   49.3708  155.8704   29.6911 H   0  0  0  0  0  0  0  0  0  0  0  0
   53.3070  156.8849   24.9335 H   0  0  0  0  0  0  0  0  0  0  0  0
   54.3810  155.3132   23.3157 H   0  0  0  0  0  0  0  0  0  0  0  0
   54.5622  152.8850   23.8652 H   0  0  0  0  0  0  0  0  0  0  0  0
   53.4060  151.1390   25.3980 H   0  0  0  0  0  0  0  0  0  0  0  0
   51.6120  154.4700   30.8710 H   0  0  0  0  0  0  0  0  0  0  0  0
   52.9435  158.1930   29.0283 H   0  0  0  0  0  0  0  0  0  0  0  0
   49.0482  158.9996   33.3245 H   0  0  0  0  0  0  0  0  0  0  0  0
   50.7429  159.6046   33.3274 H   0  0  0  0  0  0  0  0  0  0  0  0
   49.2689  160.8996   34.8918 H   0  0  0  0  0  0  0  0  0  0  0  0
   49.9444  161.9220   33.5481 H   0  0  0  0  0  0  0  0  0  0  0  0
  1  2  1  0
  2  3  1  0
  3  4  1  0
  4  5  1  0
  5  6  1  0
  6  7  2  0
  7  8  1  0
  8  9  2  0
  9 10  1  0
 10 11  1  0
 11 12  1  0
 12 13  2  0
 13 14  1  0
 14 15  2  0
 15 16  1  0
 16 17  1  0
 16 18  2  0
 18 19  1  0
 19 20  2  0
 19 21  1  0
 21 22  1  0
  9 23  1  0
 23 24  2  0
 24 25  1  0
 25 26  1  0
 25 27  1  0
 25 28  1  0
  5 29  1  0
 29 30  1  0
 30  2  1  0
 24  6  1  0
 21 10  2  0
 18 12  1  0
  1 31  1  0
  1 32  1  0
  1 33  1  0
  2 34  1  0
  3 35  1  0
  3 36  1  0
  4 37  1  0
  4 38  1  0
  7 39  1  0
  8 40  1  0
 13 41  1  0
 14 42  1  0
 15 43  1  0
 17 44  1  0
 22 45  1  0
 23 46  1  0
 29 47  1  0
 29 48  1  0
 30 49  1  0
 30 50  1  0
M  CHG  1   2   1
M  END
>  <meeko>  (4) 
{"is_sidechain": [false], "free_energy": -7.735, "intermolecular_energy": -8.397, "internal_energy": -0.289}

$$$$
