cand_016_out
     RDKit          3D

 35 37  0  0  0  0  0  0  0  0999 V2000
   52.1940  161.0520   30.7070 C   0  0  0  0  0  0  0  0  0  0  0  0
   51.3560  159.8230   30.4780 C   0  0  0  0  0  0  0  0  0  0  0  0
   51.9090  158.7490   29.7570 C   0  0  0  0  0  0  0  0  0  0  0  0
   51.1830  157.5730   29.5180 C   0  0  0  0  0  0  0  0  0  0  0  0
   51.7680  156.4350   28.7780 C   0  0  0  0  0  0  0  0  0  0  0  0
   52.3490  156.8140   27.5740 O   0  0  0  0  0  0  0  0  0  0  0  0
   52.9300  155.8530   26.7870 C   0  0  0  0  0  0  0  0  0  0  0  0
   53.4870  156.2750   25.5790 C   0  0  0  0  0  0  0  0  0  0  0  0
   54.0960  155.3470   24.7300 C   0  0  0  0  0  0  0  0  0  0  0  0
   54.1470  153.9990   25.0900 C   0  0  0  0  0  0  0  0  0  0  0  0
   53.5910  153.5800   26.2950 C   0  0  0  0  0  0  0  0  0  0  0  0
   53.6780  152.2470   26.5850 O   0  0  0  0  0  0  0  0  0  0  0  0
   52.9820  154.5090   27.1440 C   0  0  0  0  0  0  0  0  0  0  0  0
   52.3840  154.1110   28.4190 C   0  0  0  0  0  0  0  0  0  0  0  0
   52.3970  152.9450   28.8090 O   0  0  0  0  0  0  0  0  0  0  0  0
   51.7550  155.1700   29.2420 C   0  0  0  0  0  0  0  0  0  0  0  0
   51.2070  154.7870   30.4500 O   0  0  0  0  0  0  0  0  0  0  0  0
   49.8880  157.4750   30.0370 C   0  0  0  0  0  0  0  0  0  0  0  0
   49.3270  158.5280   30.7630 C   0  0  0  0  0  0  0  0  0  0  0  0
   50.0510  159.7090   31.0000 C   0  0  0  0  0  0  0  0  0  0  0  0
   49.4020  160.8310   31.7770 C   0  0  0  0  0  0  0  0  0  0  0  0
   48.4870  161.5360   31.0510 F   0  0  0  0  0  0  0  0  0  0  0  0
   48.7330  160.4000   32.8820 F   0  0  0  0  0  0  0  0  0  0  0  0
   52.3093  161.2210   31.7878 H   0  0  0  0  0  0  0  0  0  0  0  0
   53.1847  160.9106   30.2503 H   0  0  0  0  0  0  0  0  0  0  0  0
   51.7005  161.9226   30.2503 H   0  0  0  0  0  0  0  0  0  0  0  0
   52.9357  158.8336   29.3713 H   0  0  0  0  0  0  0  0  0  0  0  0
   53.4467  157.3370   25.2954 H   0  0  0  0  0  0  0  0  0  0  0  0
   54.5354  155.6787   23.7777 H   0  0  0  0  0  0  0  0  0  0  0  0
   54.6263  153.2686   24.4216 H   0  0  0  0  0  0  0  0  0  0  0  0
   54.4930  151.7960   26.4810 H   0  0  0  0  0  0  0  0  0  0  0  0
   50.3880  154.3290   30.4700 H   0  0  0  0  0  0  0  0  0  0  0  0
   49.3043  156.5575   29.8714 H   0  0  0  0  0  0  0  0  0  0  0  0
   48.3037  158.4316   31.1549 H   0  0  0  0  0  0  0  0  0  0  0  0
   50.2582  161.4647   32.0515 H   0  0  0  0  0  0  0  0  0  0  0  0
  1  2  1  0
  2  3  2  0
  3  4  1  0
  4  5  1  0
  5  6  1  0
  6  7  1  0
  7  8  2  0
  8  9  1  0
  9 10  2  0
 10 11  1  0
 11 12  1  0
 11 13  2  0
 13 14  1  0
 14 15  2  0
 14 16  1  0
 16 17  1  0
  4 18  2  0
 18 19  1  0
 19 20  2  0
 20 21  1  0
 21 22  1  0
 21 23  1  0
 20  2  1  0
 16  5  2  0
 13  7  1  0
  1 24  1  0
  1 25  1  0
  1 26  1  0
  3 27  1  0
  8 28  1  0
  9 29  1  0
 10 30  1  0
 12 31  1  0
 17 32  1  0
 18 33  1  0
 19 34  1  0
 21 35  1  0
M  END
>  <meeko>  (1) 
{"is_sidechain": [false], "free_energy": -11.046, "intermolecular_energy": -12.984, "internal_energy": -0.225}

$$$$
cand_016_out
     RDKit          3D

 35 37  0  0  0  0  0  0  0  0999 V2000
   48.2080  158.8410   31.3240 C   0  0  0  0  0  0  0  0  0  0  0  0
   49.6140  158.8520   30.7870 C   0  0  0  0  0  0  0  0  0  0  0  0
   50.0830  157.7260   30.0850 C   0  0  0  0  0  0  0  0  0  0  0  0
   51.3800  157.6790   29.5520 C   0  0  0  0  0  0  0  0  0  0  0  0
   51.8680  156.5060   28.7960 C   0  0  0  0  0  0  0  0  0  0  0  0
   52.4600  156.8510   27.5870 O   0  0  0  0  0  0  0  0  0  0  0  0
   52.9570  155.8560   26.7850 C   0  0  0  0  0  0  0  0  0  0  0  0
   53.5290  156.2440   25.5730 C   0  0  0  0  0  0  0  0  0  0  0  0
   54.0550  155.2800   24.7100 C   0  0  0  0  0  0  0  0  0  0  0  0
   54.0100  153.9300   25.0580 C   0  0  0  0  0  0  0  0  0  0  0  0
   53.4390  153.5440   26.2680 C   0  0  0  0  0  0  0  0  0  0  0  0
   53.4290  152.2050   26.5470 O   0  0  0  0  0  0  0  0  0  0  0  0
   52.9120  154.5090   27.1320 C   0  0  0  0  0  0  0  0  0  0  0  0
   52.3030  154.1460   28.4120 C   0  0  0  0  0  0  0  0  0  0  0  0
   52.2320  152.9790   28.7930 O   0  0  0  0  0  0  0  0  0  0  0  0
   51.7660  155.2430   29.2500 C   0  0  0  0  0  0  0  0  0  0  0  0
   51.2050  154.8920   30.4640 O   0  0  0  0  0  0  0  0  0  0  0  0
   52.2050  158.7970   29.7130 C   0  0  0  0  0  0  0  0  0  0  0  0
   51.7520  159.9260   30.3990 C   0  0  0  0  0  0  0  0  0  0  0  0
   50.4560  159.9740   30.9370 C   0  0  0  0  0  0  0  0  0  0  0  0
   50.0100  161.2090   31.6860 C   0  0  0  0  0  0  0  0  0  0  0  0
   48.8550  161.7510   31.2010 F   0  0  0  0  0  0  0  0  0  0  0  0
   49.7750  160.9780   33.0080 F   0  0  0  0  0  0  0  0  0  0  0  0
   48.2355  158.8412   32.4237 H   0  0  0  0  0  0  0  0  0  0  0  0
   47.6734  159.7350   30.9704 H   0  0  0  0  0  0  0  0  0  0  0  0
   47.6875  157.9388   30.9704 H   0  0  0  0  0  0  0  0  0  0  0  0
   49.4163  156.8614   29.9509 H   0  0  0  0  0  0  0  0  0  0  0  0
   53.5657  157.3083   25.2974 H   0  0  0  0  0  0  0  0  0  0  0  0
   54.5055  155.5859   23.7543 H   0  0  0  0  0  0  0  0  0  0  0  0
   54.4248  153.1716   24.3778 H   0  0  0  0  0  0  0  0  0  0  0  0
   54.1660  151.8080   26.9690 H   0  0  0  0  0  0  0  0  0  0  0  0
   50.4160  155.3070   30.7530 H   0  0  0  0  0  0  0  0  0  0  0  0
   53.2222  158.7869   29.2945 H   0  0  0  0  0  0  0  0  0  0  0  0
   52.4208  160.7909   30.5197 H   0  0  0  0  0  0  0  0  0  0  0  0
   50.8560  161.8981   31.5463 H   0  0  0  0  0  0  0  0  0  0  0  0
  1  2  1  0
  2  3  2  0
  3  4  1  0
  4  5  1  0
  5  6  1  0
  6  7  1  0
  7  8  2  0
  8  9  1  0
  9 10  2  0
 10 11  1  0
 11 12  1  0
 11 13  2  0
 13 14  1  0
 14 15  2  0
 14 16  1  0
 16 17  1  0
  4 18  2  0
 18 19  1  0
 19 20  2  0
 20 21  1  0
 21 22  1  0
 21 23  1  0
 20  2  1  0
 16  5  2  0
 13  7  1  0
  1 24  1  0
  1 25  1  0
  1 26  1  0
  3 27  1  0
  8 28  1  0
  9 29  1  0
 10 30  1  0
 12 31  1  0
 17 32  1  0
 18 33  1  0
 19 34  1  0
 21 35  1  0
M  END
>  <meeko>  (2) 
{"is_sidechain": [false], "free_energy": -10.962, "intermolecular_energy": -13.018, "internal_energy": -0.091}

$$$$
cand_016_out
     RDKit          3D

 35 37  0  0  0  0  0  0  0  0999 V2000
   53.7120  155.3100   25.3270 C   0  0  0  0  0  0  0  0  0  0  0  0
   52.9570  155.1640   26.6200 C   0  0  0  0  0  0  0  0  0  0  0  0
   52.6080  156.3220   27.3380 C   0  0  0  0  0  0  0  0  0  0  0  0
   51.8970  156.2530   28.5450 C   0  0  0  0  0  0  0  0  0  0  0  0
   51.5100  157.4700   29.2910 C   0  0  0  0  0  0  0  0  0  0  0  0
   50.1800  157.4570   29.6950 O   0  0  0  0  0  0  0  0  0  0  0  0
   49.6910  158.5270   30.3980 C   0  0  0  0  0  0  0  0  0  0  0  0
   48.3470  158.4800   30.7700 C   0  0  0  0  0  0  0  0  0  0  0  0
   47.7850  159.5370   31.4890 C   0  0  0  0  0  0  0  0  0  0  0  0
   48.5660  160.6410   31.8350 C   0  0  0  0  0  0  0  0  0  0  0  0
   49.9070  160.6860   31.4630 C   0  0  0  0  0  0  0  0  0  0  0  0
   50.6140  161.7960   31.8360 O   0  0  0  0  0  0  0  0  0  0  0  0
   50.4690  159.6280   30.7430 C   0  0  0  0  0  0  0  0  0  0  0  0
   51.8730  159.6360   30.3320 C   0  0  0  0  0  0  0  0  0  0  0  0
   52.6270  160.5680   30.6060 O   0  0  0  0  0  0  0  0  0  0  0  0
   52.3690  158.4700   29.5650 C   0  0  0  0  0  0  0  0  0  0  0  0
   53.7000  158.4800   29.1930 O   0  0  0  0  0  0  0  0  0  0  0  0
   51.5140  154.9940   29.0200 C   0  0  0  0  0  0  0  0  0  0  0  0
   51.8450  153.8350   28.3150 C   0  0  0  0  0  0  0  0  0  0  0  0
   52.5610  153.9010   27.1080 C   0  0  0  0  0  0  0  0  0  0  0  0
   52.9120  152.6210   26.3840 C   0  0  0  0  0  0  0  0  0  0  0  0
   54.2040  152.2260   26.5770 F   0  0  0  0  0  0  0  0  0  0  0  0
   52.1480  151.5620   26.7690 F   0  0  0  0  0  0  0  0  0  0  0  0
   54.7712  155.5148   25.5420 H   0  0  0  0  0  0  0  0  0  0  0  0
   53.6290  154.3792   24.7468 H   0  0  0  0  0  0  0  0  0  0  0  0
   53.2879  156.1428   24.7468 H   0  0  0  0  0  0  0  0  0  0  0  0
   52.9000  157.3063   26.9431 H   0  0  0  0  0  0  0  0  0  0  0  0
   47.7305  157.6108   30.4971 H   0  0  0  0  0  0  0  0  0  0  0  0
   46.7257  159.4996   31.7830 H   0  0  0  0  0  0  0  0  0  0  0  0
   48.1228  161.4739   32.4005 H   0  0  0  0  0  0  0  0  0  0  0  0
   51.1460  162.2460   31.2090 H   0  0  0  0  0  0  0  0  0  0  0  0
   53.9460  158.7830   28.3400 H   0  0  0  0  0  0  0  0  0  0  0  0
   50.9461  154.9163   29.9588 H   0  0  0  0  0  0  0  0  0  0  0  0
   51.5404  152.8550   28.7109 H   0  0  0  0  0  0  0  0  0  0  0  0
   52.7330  152.8786   25.3297 H   0  0  0  0  0  0  0  0  0  0  0  0
  1  2  1  0
  2  3  2  0
  3  4  1  0
  4  5  1  0
  5  6  1  0
  6  7  1  0
  7  8  2  0
  8  9  1  0
  9 10  2  0
 10 11  1  0
 11 12  1  0
 11 13  2  0
 13 14  1  0
 14 15  2  0
 14 16  1  0
 16 17  1  0
  4 18  2  0
 18 19  1  0
 19 20  2  0
 20 21  1  0
 21 22  1  0
 21 23  1  0
 20  2  1  0
 16  5  2  0
 13  7  1  0
  1 24  1  0
  1 25  1  0
  1 26  1  0
  3 27  1  0
  8 28  1  0
  9 29  1  0
 10 30  1  0
 12 31  1  0
 17 32  1  0
 18 33  1  0
 19 34  1  0
 21 35  1  0
M  END
>  <meeko>  (3) 
{"is_sidechain": [false], "free_energy": -10.343, "intermolecular_energy": -12.127, "internal_energy": -0.255}

$$$$
cand_016_out
     RDKit          3D

 35 37  0  0  0  0  0  0  0  0999 V2000
   53.7320  155.9570   25.4460 C   0  0  0  0  0  0  0  0  0  0  0  0
   52.9770  155.5840   26.6940 C   0  0  0  0  0  0  0  0  0  0  0  0
   52.4200  156.6080   27.4830 C   0  0  0  0  0  0  0  0  0  0  0  0
   51.6980  156.3250   28.6510 C   0  0  0  0  0  0  0  0  0  0  0  0
   51.0940  157.3980   29.4710 C   0  0  0  0  0  0  0  0  0  0  0  0
   51.9650  158.4570   29.7020 O   0  0  0  0  0  0  0  0  0  0  0  0
   51.5300  159.5200   30.4500 C   0  0  0  0  0  0  0  0  0  0  0  0
   52.4410  160.5540   30.6710 C   0  0  0  0  0  0  0  0  0  0  0  0
   52.0620  161.6680   31.4240 C   0  0  0  0  0  0  0  0  0  0  0  0
   50.7730  161.7480   31.9540 C   0  0  0  0  0  0  0  0  0  0  0  0
   49.8650  160.7160   31.7320 C   0  0  0  0  0  0  0  0  0  0  0  0
   48.6210  160.8600   32.2800 O   0  0  0  0  0  0  0  0  0  0  0  0
   50.2460  159.6010   30.9790 C   0  0  0  0  0  0  0  0  0  0  0  0
   49.3230  158.4940   30.7230 C   0  0  0  0  0  0  0  0  0  0  0  0
   48.1700  158.4940   31.1490 O   0  0  0  0  0  0  0  0  0  0  0  0
   49.8260  157.3550   29.9210 C   0  0  0  0  0  0  0  0  0  0  0  0
   48.9430  156.3210   29.6730 O   0  0  0  0  0  0  0  0  0  0  0  0
   51.5190  154.9870   29.0140 C   0  0  0  0  0  0  0  0  0  0  0  0
   52.0570  153.9580   28.2380 C   0  0  0  0  0  0  0  0  0  0  0  0
   52.7840  154.2390   27.0690 C   0  0  0  0  0  0  0  0  0  0  0  0
   53.3640  153.0970   26.2660 C   0  0  0  0  0  0  0  0  0  0  0  0
   54.4620  152.5290   26.8430 F   0  0  0  0  0  0  0  0  0  0  0  0
   52.4840  152.0740   26.0780 F   0  0  0  0  0  0  0  0  0  0  0  0
   54.6866  156.4286   25.7221 H   0  0  0  0  0  0  0  0  0  0  0  0
   53.9283  155.0522   24.8520 H   0  0  0  0  0  0  0  0  0  0  0  0
   53.1327  156.6627   24.8520 H   0  0  0  0  0  0  0  0  0  0  0  0
   52.5544  157.6556   27.1757 H   0  0  0  0  0  0  0  0  0  0  0  0
   53.4565  160.4918   30.2527 H   0  0  0  0  0  0  0  0  0  0  0  0
   52.7799  162.4828   31.5994 H   0  0  0  0  0  0  0  0  0  0  0  0
   50.4749  162.6256   32.5465 H   0  0  0  0  0  0  0  0  0  0  0  0
   48.1920  161.6930   32.2580 H   0  0  0  0  0  0  0  0  0  0  0  0
   49.2400  155.5470   29.2350 H   0  0  0  0  0  0  0  0  0  0  0  0
   50.9477  154.7417   29.9215 H   0  0  0  0  0  0  0  0  0  0  0  0
   51.9094  152.9125   28.5465 H   0  0  0  0  0  0  0  0  0  0  0  0
   53.6266  153.5782   25.3123 H   0  0  0  0  0  0  0  0  0  0  0  0
  1  2  1  0
  2  3  2  0
  3  4  1  0
  4  5  1  0
  5  6  1  0
  6  7  1  0
  7  8  2  0
  8  9  1  0
  9 10  2  0
 10 11  1  0
 11 12  1  0
 11 13  2  0
 13 14  1  0
 14 15  2  0
 14 16  1  0
 16 17  1  0
  4 18  2  0
 18 19  1  0
 19 20  2  0
 20 21  1  0
 21 22  1  0
 21 23  1  0
 20  2  1  0
 16  5  2  0
 13  7  1  0
  1 24  1  0
  1 25  1  0
  1 26  1  0
  3 27  1  0
  8 28  1  0
  9 29  1  0
 10 30  1  0
 12 31  1  0
 17 32  1  0
 18 33  1  0
 19 34  1  0
 21 35  1  0
M  END
>  <meeko>  (4) 
{"is_sidechain": [false], "free_energy": -9.22, "intermolecular_energy": -10.884, "internal_energy": -0.178}

$$$$
cand_016_out
     RDKit          3D

 35 37  0  0  0  0  0  0  0  0999 V2000
   51.9010  152.8220   28.1730 C   0  0  0  0  0  0  0  0  0  0  0  0
   52.1560  154.2820   27.9110 C   0  0  0  0  0  0  0  0  0  0  0  0
   51.5520  155.2390   28.7480 C   0  0  0  0  0  0  0  0  0  0  0  0
   51.7580  156.6130   28.5620 C   0  0  0  0  0  0  0  0  0  0  0  0
   51.1410  157.6190   29.4520 C   0  0  0  0  0  0  0  0  0  0  0  0
   51.9700  158.7090   29.6920 O   0  0  0  0  0  0  0  0  0  0  0  0
   51.5190  159.7180   30.5030 C   0  0  0  0  0  0  0  0  0  0  0  0
   52.3900  160.7850   30.7310 C   0  0  0  0  0  0  0  0  0  0  0  0
   51.9930  161.8470   31.5470 C   0  0  0  0  0  0  0  0  0  0  0  0
   50.7270  161.8420   32.1350 C   0  0  0  0  0  0  0  0  0  0  0  0
   49.8600  160.7760   31.9070 C   0  0  0  0  0  0  0  0  0  0  0  0
   48.6350  160.8360   32.5130 O   0  0  0  0  0  0  0  0  0  0  0  0
   50.2580  159.7140   31.0910 C   0  0  0  0  0  0  0  0  0  0  0  0
   49.3780  158.5750   30.8260 C   0  0  0  0  0  0  0  0  0  0  0  0
   48.2460  158.5010   31.3010 O   0  0  0  0  0  0  0  0  0  0  0  0
   49.8980  157.4960   29.9540 C   0  0  0  0  0  0  0  0  0  0  0  0
   49.0540  156.4320   29.6980 O   0  0  0  0  0  0  0  0  0  0  0  0
   52.6050  157.0240   27.5270 C   0  0  0  0  0  0  0  0  0  0  0  0
   53.2200  156.0880   26.6930 C   0  0  0  0  0  0  0  0  0  0  0  0
   53.0110  154.7110   26.8750 C   0  0  0  0  0  0  0  0  0  0  0  0
   53.6840  153.7310   25.9400 C   0  0  0  0  0  0  0  0  0  0  0  0
   52.8280  153.1670   25.0380 F   0  0  0  0  0  0  0  0  0  0  0  0
   54.6750  154.2950   25.1960 F   0  0  0  0  0  0  0  0  0  0  0  0
   51.8699  152.6442   29.2581 H   0  0  0  0  0  0  0  0  0  0  0  0
   50.9386  152.5319   27.7262 H   0  0  0  0  0  0  0  0  0  0  0  0
   52.7081  152.2229   27.7262 H   0  0  0  0  0  0  0  0  0  0  0  0
   50.9022  154.9003   29.5684 H   0  0  0  0  0  0  0  0  0  0  0  0
   53.3880  160.7894   30.2685 H   0  0  0  0  0  0  0  0  0  0  0  0
   52.6788  162.6882   31.7264 H   0  0  0  0  0  0  0  0  0  0  0  0
   50.4146  162.6785   32.7773 H   0  0  0  0  0  0  0  0  0  0  0  0
   48.5760  160.9370   33.4430 H   0  0  0  0  0  0  0  0  0  0  0  0
   49.2570  155.5810   30.0370 H   0  0  0  0  0  0  0  0  0  0  0  0
   52.7886  158.0969   27.3684 H   0  0  0  0  0  0  0  0  0  0  0  0
   53.8776  156.4340   25.8819 H   0  0  0  0  0  0  0  0  0  0  0  0
   54.0859  152.9726   26.6280 H   0  0  0  0  0  0  0  0  0  0  0  0
  1  2  1  0
  2  3  2  0
  3  4  1  0
  4  5  1  0
  5  6  1  0
  6  7  1  0
  7  8  2  0
  8  9  1  0
  9 10  2  0
 10 11  1  0
 11 12  1  0
 11 13  2  0
 13 14  1  0
 14 15  2  0
 14 16  1  0
 16 17  1  0
  4 18  2  0
 18 19  1  0
 19 20  2  0
 20 21  1  0
 21 22  1  0
 21 23  1  0
 20  2  1  0
 16  5  2  0
 13  7  1  0
  1 24  1  0
  1 25  1  0
  1 26  1  0
  3 27  1  0
  8 28  1  0
  9 29  1  0
 10 30  1  0
 12 31  1  0
 17 32  1  0
 18 33  1  0
 19 34  1  0
 21 35  1  0
M  END
>  <meeko>  (5) 
{"is_sidechain": [false], "free_energy": -8.741, "intermolecular_energy": -10.376, "internal_energy": -0.123}

$$$$
cand_016_out
     RDKit          3D

 35 37  0  0  0  0  0  0  0  0999 V2000
   51.9760  159.3520   29.9980 C   0  0  0  0  0  0  0  0  0  0  0  0
   51.3890  158.0210   29.6120 C   0  0  0  0  0  0  0  0  0  0  0  0
   52.0810  157.2150   28.6890 C   0  0  0  0  0  0  0  0  0  0  0  0
   51.5910  155.9620   28.2960 C   0  0  0  0  0  0  0  0  0  0  0  0
   52.3250  155.1040   27.3420 C   0  0  0  0  0  0  0  0  0  0  0  0
   51.9800  153.7610   27.4450 O   0  0  0  0  0  0  0  0  0  0  0  0
   52.5880  152.8550   26.6150 C   0  0  0  0  0  0  0  0  0  0  0  0
   52.2240  151.5160   26.7630 C   0  0  0  0  0  0  0  0  0  0  0  0
   52.8060  150.5410   25.9490 C   0  0  0  0  0  0  0  0  0  0  0  0
   53.7500  150.9050   24.9870 C   0  0  0  0  0  0  0  0  0  0  0  0
   54.1120  152.2420   24.8410 C   0  0  0  0  0  0  0  0  0  0  0  0
   55.0410  152.5280   23.8790 O   0  0  0  0  0  0  0  0  0  0  0  0
   53.5300  153.2170   25.6570 C   0  0  0  0  0  0  0  0  0  0  0  0
   53.8830  154.6320   25.5360 C   0  0  0  0  0  0  0  0  0  0  0  0
   54.7000  155.0320   24.7080 O   0  0  0  0  0  0  0  0  0  0  0  0
   53.2160  155.5850   26.4530 C   0  0  0  0  0  0  0  0  0  0  0  0
   53.5450  156.9200   26.3230 O   0  0  0  0  0  0  0  0  0  0  0  0
   50.3960  155.5070   28.8630 C   0  0  0  0  0  0  0  0  0  0  0  0
   49.7020  156.2900   29.7880 C   0  0  0  0  0  0  0  0  0  0  0  0
   50.1880  157.5490   30.1800 C   0  0  0  0  0  0  0  0  0  0  0  0
   49.3980  158.3710   31.1720 C   0  0  0  0  0  0  0  0  0  0  0  0
   49.9980  159.5540   31.4960 F   0  0  0  0  0  0  0  0  0  0  0  0
   48.1570  158.7060   30.7220 F   0  0  0  0  0  0  0  0  0  0  0  0
   52.0117  159.4329   31.0944 H   0  0  0  0  0  0  0  0  0  0  0  0
   52.9945  159.4355   29.5908 H   0  0  0  0  0  0  0  0  0  0  0  0
   51.3509  160.1604   29.5908 H   0  0  0  0  0  0  0  0  0  0  0  0
   53.0295  157.5771   28.2657 H   0  0  0  0  0  0  0  0  0  0  0  0
   51.4795  151.2284   27.5199 H   0  0  0  0  0  0  0  0  0  0  0  0
   52.5201  149.4853   26.0662 H   0  0  0  0  0  0  0  0  0  0  0  0
   54.2071  150.1372   24.3455 H   0  0  0  0  0  0  0  0  0  0  0  0
   55.9400  152.2970   24.0120 H   0  0  0  0  0  0  0  0  0  0  0  0
   53.7000  157.2840   25.4720 H   0  0  0  0  0  0  0  0  0  0  0  0
   49.9986  154.5219   28.5772 H   0  0  0  0  0  0  0  0  0  0  0  0
   48.7605  155.9155   30.2163 H   0  0  0  0  0  0  0  0  0  0  0  0
   49.3385  157.7073   32.0472 H   0  0  0  0  0  0  0  0  0  0  0  0
  1  2  1  0
  2  3  2  0
  3  4  1  0
  4  5  1  0
  5  6  1  0
  6  7  1  0
  7  8  2  0
  8  9  1  0
  9 10  2  0
 10 11  1  0
 11 12  1  0
 11 13  2  0
 13 14  1  0
 14 15  2  0
 14 16  1  0
 16 17  1  0
  4 18  2  0
 18 19  1  0
 19 20  2  0
 20 21  1  0
 21 22  1  0
 21 23  1  0
 20  2  1  0
 16  5  2  0
 13  7  1  0
  1 24  1  0
  1 25  1  0
  1 26  1  0
  3 27  1  0
  8 28  1  0
  9 29  1  0
 10 30  1  0
 12 31  1  0
 17 32  1  0
 18 33  1  0
 19 34  1  0
 21 35  1  0
M  END
>  <meeko>  (6) 
{"is_sidechain": [false], "free_energy": -8.438, "intermolecular_energy": -10.868, "internal_energy": 0.725}

$$$$
cand_016_out
     RDKit          3D

 35 37  0  0  0  0  0  0  0  0999 V2000
   48.9810  157.1400   30.3250 C   0  0  0  0  0  0  0  0  0  0  0  0
   50.3500  157.2500   29.7100 C   0  0  0  0  0  0  0  0  0  0  0  0
   50.8020  156.2190   28.8670 C   0  0  0  0  0  0  0  0  0  0  0  0
   52.0640  156.2670   28.2570 C   0  0  0  0  0  0  0  0  0  0  0  0
   52.5330  155.1940   27.3540 C   0  0  0  0  0  0  0  0  0  0  0  0
   52.0490  153.9400   27.7080 O   0  0  0  0  0  0  0  0  0  0  0  0
   52.4070  152.8540   26.9520 C   0  0  0  0  0  0  0  0  0  0  0  0
   51.9130  151.6120   27.3520 C   0  0  0  0  0  0  0  0  0  0  0  0
   52.2390  150.4640   26.6250 C   0  0  0  0  0  0  0  0  0  0  0  0
   53.0590  150.5590   25.4990 C   0  0  0  0  0  0  0  0  0  0  0  0
   53.5520  151.7990   25.1020 C   0  0  0  0  0  0  0  0  0  0  0  0
   54.3480  151.8200   23.9900 O   0  0  0  0  0  0  0  0  0  0  0  0
   53.2250  152.9470   25.8300 C   0  0  0  0  0  0  0  0  0  0  0  0
   53.7230  154.2690   25.4470 C   0  0  0  0  0  0  0  0  0  0  0  0
   54.4430  154.4360   24.4640 O   0  0  0  0  0  0  0  0  0  0  0  0
   53.3260  155.4210   26.2900 C   0  0  0  0  0  0  0  0  0  0  0  0
   53.7890  156.6670   25.9120 O   0  0  0  0  0  0  0  0  0  0  0  0
   52.8700  157.3870   28.4850 C   0  0  0  0  0  0  0  0  0  0  0  0
   52.4330  158.4250   29.3120 C   0  0  0  0  0  0  0  0  0  0  0  0
   51.1710  158.3760   29.9280 C   0  0  0  0  0  0  0  0  0  0  0  0
   50.7430  159.5130   30.8270 C   0  0  0  0  0  0  0  0  0  0  0  0
   51.7780  160.3030   31.2340 F   0  0  0  0  0  0  0  0  0  0  0  0
   49.8530  160.3580   30.2360 F   0  0  0  0  0  0  0  0  0  0  0  0
   49.0699  157.1471   31.4214 H   0  0  0  0  0  0  0  0  0  0  0  0
   48.3642  157.9915   30.0016 H   0  0  0  0  0  0  0  0  0  0  0  0
   48.5081  156.2010   30.0016 H   0  0  0  0  0  0  0  0  0  0  0  0
   50.1493  155.3532   28.6814 H   0  0  0  0  0  0  0  0  0  0  0  0
   51.2672  151.5365   28.2393 H   0  0  0  0  0  0  0  0  0  0  0  0
   51.8493  149.4848   26.9401 H   0  0  0  0  0  0  0  0  0  0  0  0
   53.3152  149.6554   24.9264 H   0  0  0  0  0  0  0  0  0  0  0  0
   55.0070  152.4810   23.8970 H   0  0  0  0  0  0  0  0  0  0  0  0
   53.9960  157.3070   26.5640 H   0  0  0  0  0  0  0  0  0  0  0  0
   53.8591  157.4514   28.0079 H   0  0  0  0  0  0  0  0  0  0  0  0
   53.0864  159.2932   29.4833 H   0  0  0  0  0  0  0  0  0  0  0  0
   50.2885  158.9900   31.6813 H   0  0  0  0  0  0  0  0  0  0  0  0
  1  2  1  0
  2  3  2  0
  3  4  1  0
  4  5  1  0
  5  6  1  0
  6  7  1  0
  7  8  2  0
  8  9  1  0
  9 10  2  0
 10 11  1  0
 11 12  1  0
 11 13  2  0
 13 14  1  0
 14 15  2  0
 14 16  1  0
 16 17  1  0
  4 18  2  0
 18 19  1  0
 19 20  2  0
 20 21  1  0
 21 22  1  0
 21 23  1  0
 20  2  1  0
 16  5  2  0
 13  7  1  0
  1 24  1  0
  1 25  1  0
  1 26  1  0
  3 27  1  0
  8 28  1  0
  9 29  1  0
 10 30  1  0
 12 31  1  0
 17 32  1  0
 18 33  1  0
 19 34  1  0
 21 35  1  0
M  END
>  <meeko>  (7) 
{"is_sidechain": [false], "free_energy": -8.215, "intermolecular_energy": -9.87, "internal_energy": -0.011}

$$$$
cand_016_out
     RDKit          3D

 35 37  0  0  0  0  0  0  0  0999 V2000
   51.7950  160.1540   30.4400 C   0  0  0  0  0  0  0  0  0  0  0  0
   51.1220  158.8480   30.1140 C   0  0  0  0  0  0  0  0  0  0  0  0
   51.7700  157.9470   29.2490 C   0  0  0  0  0  0  0  0  0  0  0  0
   51.1990  156.7110   28.9140 C   0  0  0  0  0  0  0  0  0  0  0  0
   51.8870  155.7530   28.0220 C   0  0  0  0  0  0  0  0  0  0  0  0
   51.4500  154.4450   28.1930 O   0  0  0  0  0  0  0  0  0  0  0  0
   52.0060  153.4540   27.4260 C   0  0  0  0  0  0  0  0  0  0  0  0
   51.5500  152.1530   27.6420 C   0  0  0  0  0  0  0  0  0  0  0  0
   52.0750  151.0970   26.8930 C   0  0  0  0  0  0  0  0  0  0  0  0
   53.0550  151.3420   25.9300 C   0  0  0  0  0  0  0  0  0  0  0  0
   53.5090  152.6410   25.7150 C   0  0  0  0  0  0  0  0  0  0  0  0
   54.4680  152.8090   24.7560 O   0  0  0  0  0  0  0  0  0  0  0  0
   52.9840  153.6970   26.4650 C   0  0  0  0  0  0  0  0  0  0  0  0
   53.4330  155.0770   26.2720 C   0  0  0  0  0  0  0  0  0  0  0  0
   54.2860  155.3740   25.4380 O   0  0  0  0  0  0  0  0  0  0  0  0
   52.8200  156.1220   27.1240 C   0  0  0  0  0  0  0  0  0  0  0  0
   53.2410  157.4230   26.9250 O   0  0  0  0  0  0  0  0  0  0  0  0
   49.9660  156.3720   29.4810 C   0  0  0  0  0  0  0  0  0  0  0  0
   49.3140  157.2510   30.3490 C   0  0  0  0  0  0  0  0  0  0  0  0
   49.8820  158.4920   30.6820 C   0  0  0  0  0  0  0  0  0  0  0  0
   49.1360  159.4210   31.6130 C   0  0  0  0  0  0  0  0  0  0  0  0
   47.8840  158.9800   31.9320 F   0  0  0  0  0  0  0  0  0  0  0  0
   49.7690  159.6060   32.8050 F   0  0  0  0  0  0  0  0  0  0  0  0
   51.8561  160.2725   31.5319 H   0  0  0  0  0  0  0  0  0  0  0  0
   52.8088  160.1606   30.0132 H   0  0  0  0  0  0  0  0  0  0  0  0
   51.2120  160.9835   30.0132 H   0  0  0  0  0  0  0  0  0  0  0  0
   52.7481  158.2189   28.8254 H   0  0  0  0  0  0  0  0  0  0  0  0
   50.7780  151.9591   28.4012 H   0  0  0  0  0  0  0  0  0  0  0  0
   51.7156  150.0713   27.0625 H   0  0  0  0  0  0  0  0  0  0  0  0
   53.4685  150.5098   25.3413 H   0  0  0  0  0  0  0  0  0  0  0  0
   54.3800  152.3860   23.9240 H   0  0  0  0  0  0  0  0  0  0  0  0
   52.7400  158.0000   26.3800 H   0  0  0  0  0  0  0  0  0  0  0  0
   49.5048  155.4027   29.2407 H   0  0  0  0  0  0  0  0  0  0  0  0
   48.3416  156.9674   30.7780 H   0  0  0  0  0  0  0  0  0  0  0  0
   49.0882  160.3571   31.0373 H   0  0  0  0  0  0  0  0  0  0  0  0
  1  2  1  0
  2  3  2  0
  3  4  1  0
  4  5  1  0
  5  6  1  0
  6  7  1  0
  7  8  2  0
  8  9  1  0
  9 10  2  0
 10 11  1  0
 11 12  1  0
 11 13  2  0
 13 14  1  0
 14 15  2  0
 14 16  1  0
 16 17  1  0
  4 18  2  0
 18 19  1  0
 19 20  2  0
 20 21  1  0
 21 22  1  0
 21 23  1  0
 20  2  1  0
 16  5  2  0
 13  7  1  0
  1 24  1  0
  1 25  1  0
  1 26  1  0
  3 27  1  0
  8 28  1  0
  9 29  1  0
 10 30  1  0
 12 31  1  0
 17 32  1  0
 18 33  1  0
 19 34  1  0
 21 35  1  0
M  END
>  <meeko>  (8) 
{"is_sidechain": [false], "free_energy": -8.137, "intermolecular_energy": -9.862, "internal_energy": 0.074}

$$$$
