cand_003_out
     RDKit          3D

 35 37  0  0  0  0  0  0  0  0999 V2000
   48.2340  158.7470   31.2410 C   0  0  0  0  0  0  0  0  0  0  0  0
   49.6470  158.7760   30.7210 C   0  0  0  0  0  0  0  0  0  0  0  0
   50.1310  157.6720   29.9940 C   0  0  0  0  0  0  0  0  0  0  0  0
   51.4350  157.6490   29.4750 C   0  0  0  0  0  0  0  0  0  0  0  0
   51.9120  156.4590   28.7400 C   0  0  0  0  0  0  0  0  0  0  0  0
   52.4910  156.7750   27.5160 O   0  0  0  0  0  0  0  0  0  0  0  0
   52.9770  155.7610   26.7310 C   0  0  0  0  0  0  0  0  0  0  0  0
   53.5370  156.1220   25.5040 C   0  0  0  0  0  0  0  0  0  0  0  0
   54.0520  155.1390   24.6570 C   0  0  0  0  0  0  0  0  0  0  0  0
   54.0090  153.7950   25.0370 C   0  0  0  0  0  0  0  0  0  0  0  0
   53.4520  153.4380   26.2620 C   0  0  0  0  0  0  0  0  0  0  0  0
   53.4430  152.1060   26.5710 O   0  0  0  0  0  0  0  0  0  0  0  0
   52.9340  154.4230   27.1080 C   0  0  0  0  0  0  0  0  0  0  0  0
   52.3390  154.0900   28.4030 C   0  0  0  0  0  0  0  0  0  0  0  0
   52.2710  152.9320   28.8110 O   0  0  0  0  0  0  0  0  0  0  0  0
   51.8130  155.2060   29.2230 C   0  0  0  0  0  0  0  0  0  0  0  0
   51.2660  154.8830   30.4500 O   0  0  0  0  0  0  0  0  0  0  0  0
   52.2640  158.7510   29.7090 C   0  0  0  0  0  0  0  0  0  0  0  0
   51.7970  159.8550   30.4270 C   0  0  0  0  0  0  0  0  0  0  0  0
   50.4890  159.8870   30.9380 C   0  0  0  0  0  0  0  0  0  0  0  0
   50.0190  161.1020   31.7100 C   0  0  0  0  0  0  0  0  0  0  0  0
   49.5190  160.7880   32.9380 F   0  0  0  0  0  0  0  0  0  0  0  0
   49.0300  161.7990   31.0790 F   0  0  0  0  0  0  0  0  0  0  0  0
   51.0180  162.0040   31.9300 F   0  0  0  0  0  0  0  0  0  0  0  0
   48.2480  158.7473   32.3409 H   0  0  0  0  0  0  0  0  0  0  0  0
   47.6925  159.6342   30.8810 H   0  0  0  0  0  0  0  0  0  0  0  0
   47.7294  157.8383   30.8810 H   0  0  0  0  0  0  0  0  0  0  0  0
   49.4718  156.8070   29.8287 H   0  0  0  0  0  0  0  0  0  0  0  0
   53.5724  157.1800   25.2050 H   0  0  0  0  0  0  0  0  0  0  0  0
   54.4920  155.4227   23.6896 H   0  0  0  0  0  0  0  0  0  0  0  0
   54.4145  153.0204   24.3695 H   0  0  0  0  0  0  0  0  0  0  0  0
   52.9720  151.8020   27.3220 H   0  0  0  0  0  0  0  0  0  0  0  0
   51.6040  154.1580   30.9370 H   0  0  0  0  0  0  0  0  0  0  0  0
   53.2943  158.7485   29.3238 H   0  0  0  0  0  0  0  0  0  0  0  0
   52.4646  160.7130   30.5948 H   0  0  0  0  0  0  0  0  0  0  0  0
  1  2  1  0
  2  3  2  0
  3  4  1  0
  4  5  1  0
  5  6  1  0
  6  7  1  0
  7  8  2  0
  8  9  1  0
  9 10  2  0
 10 11  1  0
 11 12  1  0
 11 13  2  0
 13 14  1  0
 14 15  2  0
 14 16  1  0
 16 17  1  0
  4 18  2  0
 18 19  1  0
 19 20  2  0
 20 21  1  0
 21 22  1  0
 21 23  1  0
 21 24  1  0
 20  2  1  0
 16  5  2  0
 13  7  1  0
  1 25  1  0
  1 26  1  0
  1 27  1  0
  3 28  1  0
  8 29  1  0
  9 30  1  0
 10 31  1  0
 12 32  1  0
 17 33  1  0
 18 34  1  0
 19 35  1  0
M  END
>  <meeko>  (1) 
{"is_sidechain": [false], "free_energy": -12.101, "intermolecular_energy": -14.223, "internal_energy": -0.124}

$$$$
cand_003_out
     RDKit          3D

 35 37  0  0  0  0  0  0  0  0999 V2000
   51.6630  161.0590   30.8620 C   0  0  0  0  0  0  0  0  0  0  0  0
   50.9090  159.7830   30.5970 C   0  0  0  0  0  0  0  0  0  0  0  0
   51.5540  158.7380   29.9070 C   0  0  0  0  0  0  0  0  0  0  0  0
   50.9050  157.5230   29.6430 C   0  0  0  0  0  0  0  0  0  0  0  0
   51.6090  156.4610   28.8930 C   0  0  0  0  0  0  0  0  0  0  0  0
   52.1560  156.9150   27.6980 O   0  0  0  0  0  0  0  0  0  0  0  0
   52.8380  156.0300   26.9030 C   0  0  0  0  0  0  0  0  0  0  0  0
   53.3590  156.5230   25.7060 C   0  0  0  0  0  0  0  0  0  0  0  0
   54.0660  155.6750   24.8510 C   0  0  0  0  0  0  0  0  0  0  0  0
   54.2540  154.3350   25.1930 C   0  0  0  0  0  0  0  0  0  0  0  0
   53.7350  153.8450   26.3890 C   0  0  0  0  0  0  0  0  0  0  0  0
   53.9570  152.5230   26.6630 O   0  0  0  0  0  0  0  0  0  0  0  0
   53.0260  154.6930   27.2430 C   0  0  0  0  0  0  0  0  0  0  0  0
   52.4640  154.2180   28.5080 C   0  0  0  0  0  0  0  0  0  0  0  0
   52.5930  153.0550   28.8830 O   0  0  0  0  0  0  0  0  0  0  0  0
   51.7230  155.1960   29.3390 C   0  0  0  0  0  0  0  0  0  0  0  0
   51.2070  154.7410   30.5380 O   0  0  0  0  0  0  0  0  0  0  0  0
   49.5810  157.3690   30.0670 C   0  0  0  0  0  0  0  0  0  0  0  0
   48.9280  158.3950   30.7540 C   0  0  0  0  0  0  0  0  0  0  0  0
   49.5780  159.6100   31.0320 C   0  0  0  0  0  0  0  0  0  0  0  0
   48.8380  160.6980   31.7810 C   0  0  0  0  0  0  0  0  0  0  0  0
   47.5540  160.3550   32.0810 F   0  0  0  0  0  0  0  0  0  0  0  0
   48.7520  161.8720   31.0910 F   0  0  0  0  0  0  0  0  0  0  0  0
   49.4300  161.0150   32.9670 F   0  0  0  0  0  0  0  0  0  0  0  0
   51.7538  161.2126   31.9474 H   0  0  0  0  0  0  0  0  0  0  0  0
   52.6663  160.9914   30.4161 H   0  0  0  0  0  0  0  0  0  0  0  0
   51.1198  161.9052   30.4161 H   0  0  0  0  0  0  0  0  0  0  0  0
   52.5908  158.8781   29.5673 H   0  0  0  0  0  0  0  0  0  0  0  0
   53.2128  157.5793   25.4360 H   0  0  0  0  0  0  0  0  0  0  0  0
   54.4753  156.0636   23.9068 H   0  0  0  0  0  0  0  0  0  0  0  0
   54.8110  153.6672   24.5193 H   0  0  0  0  0  0  0  0  0  0  0  0
   53.3250  152.0330   27.1520 H   0  0  0  0  0  0  0  0  0  0  0  0
   50.6080  154.0220   30.5470 H   0  0  0  0  0  0  0  0  0  0  0  0
   49.0483  156.4298   29.8572 H   0  0  0  0  0  0  0  0  0  0  0  0
   47.8884  158.2499   31.0828 H   0  0  0  0  0  0  0  0  0  0  0  0
  1  2  1  0
  2  3  2  0
  3  4  1  0
  4  5  1  0
  5  6  1  0
  6  7  1  0
  7  8  2  0
  8  9  1  0
  9 10  2  0
 10 11  1  0
 11 12  1  0
 11 13  2  0
 13 14  1  0
 14 15  2  0
 14 16  1  0
 16 17  1  0
  4 18  2  0
 18 19  1  0
 19 20  2  0
 20 21  1  0
 21 22  1  0
 21 23  1  0
 21 24  1  0
 20  2  1  0
 16  5  2  0
 13  7  1  0
  1 25  1  0
  1 26  1  0
  1 27  1  0
  3 28  1  0
  8 29  1  0
  9 30  1  0
 10 31  1  0
 12 32  1  0
 17 33  1  0
 18 34  1  0
 19 35  1  0
M  END
>  <meeko>  (2) 
{"is_sidechain": [false], "free_energy": -11.986, "intermolecular_energy": -13.997, "internal_energy": -0.215}

$$$$
cand_003_out
     RDKit          3D

 35 37  0  0  0  0  0  0  0  0999 V2000
   51.9000  160.2860   30.3830 C   0  0  0  0  0  0  0  0  0  0  0  0
   51.2630  158.9520   30.0970 C   0  0  0  0  0  0  0  0  0  0  0  0
   51.9490  158.0260   29.2880 C   0  0  0  0  0  0  0  0  0  0  0  0
   51.4100  156.7630   28.9980 C   0  0  0  0  0  0  0  0  0  0  0  0
   52.1510  155.8300   28.1220 C   0  0  0  0  0  0  0  0  0  0  0  0
   52.7360  156.4620   27.0310 O   0  0  0  0  0  0  0  0  0  0  0  0
   53.4560  155.7110   26.1370 C   0  0  0  0  0  0  0  0  0  0  0  0
   54.0140  156.3830   25.0490 C   0  0  0  0  0  0  0  0  0  0  0  0
   54.7600  155.6780   24.1030 C   0  0  0  0  0  0  0  0  0  0  0  0
   54.9490  154.3020   24.2440 C   0  0  0  0  0  0  0  0  0  0  0  0
   54.3910  153.6330   25.3320 C   0  0  0  0  0  0  0  0  0  0  0  0
   54.6160  152.2860   25.4100 O   0  0  0  0  0  0  0  0  0  0  0  0
   53.6430  154.3400   26.2780 C   0  0  0  0  0  0  0  0  0  0  0  0
   53.0410  153.6760   27.4340 C   0  0  0  0  0  0  0  0  0  0  0  0
   53.1680  152.4690   27.6320 O   0  0  0  0  0  0  0  0  0  0  0  0
   52.2610  154.5130   28.3750 C   0  0  0  0  0  0  0  0  0  0  0  0
   51.7070  153.8790   29.4720 O   0  0  0  0  0  0  0  0  0  0  0  0
   50.1530  156.4390   29.5210 C   0  0  0  0  0  0  0  0  0  0  0  0
   49.4620  157.3460   30.3280 C   0  0  0  0  0  0  0  0  0  0  0  0
   50.0020  158.6070   30.6300 C   0  0  0  0  0  0  0  0  0  0  0  0
   49.2230  159.5620   31.5090 C   0  0  0  0  0  0  0  0  0  0  0  0
   49.9230  159.9590   32.6090 F   0  0  0  0  0  0  0  0  0  0  0  0
   48.0580  159.0370   31.9860 F   0  0  0  0  0  0  0  0  0  0  0  0
   48.8680  160.7050   30.8570 F   0  0  0  0  0  0  0  0  0  0  0  0
   51.9702  160.4331   31.4709 H   0  0  0  0  0  0  0  0  0  0  0  0
   52.9081  160.3127   29.9435 H   0  0  0  0  0  0  0  0  0  0  0  0
   51.2871  161.0867   29.9435 H   0  0  0  0  0  0  0  0  0  0  0  0
   52.9307  158.2989   28.8734 H   0  0  0  0  0  0  0  0  0  0  0  0
   53.8662  157.4672   24.9368 H   0  0  0  0  0  0  0  0  0  0  0  0
   55.1997  156.2075   23.2449 H   0  0  0  0  0  0  0  0  0  0  0  0
   55.5370  153.7471   23.4981 H   0  0  0  0  0  0  0  0  0  0  0  0
   54.1530  151.7000   24.8430 H   0  0  0  0  0  0  0  0  0  0  0  0
   50.7780  153.8770   29.5920 H   0  0  0  0  0  0  0  0  0  0  0  0
   49.7047  155.4604   29.2944 H   0  0  0  0  0  0  0  0  0  0  0  0
   48.4782  157.0679   30.7339 H   0  0  0  0  0  0  0  0  0  0  0  0
  1  2  1  0
  2  3  2  0
  3  4  1  0
  4  5  1  0
  5  6  1  0
  6  7  1  0
  7  8  2  0
  8  9  1  0
  9 10  2  0
 10 11  1  0
 11 12  1  0
 11 13  2  0
 13 14  1  0
 14 15  2  0
 14 16  1  0
 16 17  1  0
  4 18  2  0
 18 19  1  0
 19 20  2  0
 20 21  1  0
 21 22  1  0
 21 23  1  0
 21 24  1  0
 20  2  1  0
 16  5  2  0
 13  7  1  0
  1 25  1  0
  1 26  1  0
  1 27  1  0
  3 28  1  0
  8 29  1  0
  9 30  1  0
 10 31  1  0
 12 32  1  0
 17 33  1  0
 18 34  1  0
 19 35  1  0
M  END
>  <meeko>  (3) 
{"is_sidechain": [false], "free_energy": -11.494, "intermolecular_energy": -13.542, "internal_energy": -0.093}

$$$$
cand_003_out
     RDKit          3D

 35 37  0  0  0  0  0  0  0  0999 V2000
   53.5190  156.2090   25.9650 C   0  0  0  0  0  0  0  0  0  0  0  0
   52.6610  156.0040   27.1850 C   0  0  0  0  0  0  0  0  0  0  0  0
   52.2670  157.1250   27.9410 C   0  0  0  0  0  0  0  0  0  0  0  0
   51.4580  156.9960   29.0800 C   0  0  0  0  0  0  0  0  0  0  0  0
   51.0900  158.1970   29.8600 C   0  0  0  0  0  0  0  0  0  0  0  0
   49.7790  158.1600   30.3230 O   0  0  0  0  0  0  0  0  0  0  0  0
   49.3080  159.2140   31.0630 C   0  0  0  0  0  0  0  0  0  0  0  0
   47.9830  159.1430   31.4950 C   0  0  0  0  0  0  0  0  0  0  0  0
   47.4410  160.1820   32.2550 C   0  0  0  0  0  0  0  0  0  0  0  0
   48.2230  161.2910   32.5820 C   0  0  0  0  0  0  0  0  0  0  0  0
   49.5460  161.3600   32.1500 C   0  0  0  0  0  0  0  0  0  0  0  0
   50.2550  162.4730   32.5070 O   0  0  0  0  0  0  0  0  0  0  0  0
   50.0870  160.3200   31.3890 C   0  0  0  0  0  0  0  0  0  0  0  0
   51.4710  160.3530   30.9150 C   0  0  0  0  0  0  0  0  0  0  0  0
   52.2250  161.2900   31.1680 O   0  0  0  0  0  0  0  0  0  0  0  0
   51.9470  159.2040   30.1090 C   0  0  0  0  0  0  0  0  0  0  0  0
   53.2600  159.2380   29.6780 O   0  0  0  0  0  0  0  0  0  0  0  0
   51.0550  155.7140   29.4680 C   0  0  0  0  0  0  0  0  0  0  0  0
   51.4350  154.5920   28.7270 C   0  0  0  0  0  0  0  0  0  0  0  0
   52.2350  154.7170   27.5800 C   0  0  0  0  0  0  0  0  0  0  0  0
   52.6250  153.4780   26.8020 C   0  0  0  0  0  0  0  0  0  0  0  0
   53.9660  153.2380   26.8280 F   0  0  0  0  0  0  0  0  0  0  0  0
   52.2880  153.5350   25.4820 F   0  0  0  0  0  0  0  0  0  0  0  0
   52.0320  152.3490   27.2820 F   0  0  0  0  0  0  0  0  0  0  0  0
   54.5454  156.4542   26.2756 H   0  0  0  0  0  0  0  0  0  0  0  0
   53.5280  155.2877   25.3640 H   0  0  0  0  0  0  0  0  0  0  0  0
   53.1105  157.0348   25.3640 H   0  0  0  0  0  0  0  0  0  0  0  0
   52.6016  158.1259   27.6310 H   0  0  0  0  0  0  0  0  0  0  0  0
   47.3660  158.2696   31.2372 H   0  0  0  0  0  0  0  0  0  0  0  0
   46.3967  160.1262   32.5962 H   0  0  0  0  0  0  0  0  0  0  0  0
   47.7955  162.1094   33.1799 H   0  0  0  0  0  0  0  0  0  0  0  0
   51.1620  162.3990   32.7340 H   0  0  0  0  0  0  0  0  0  0  0  0
   53.8980  158.6810   30.0770 H   0  0  0  0  0  0  0  0  0  0  0  0
   50.4323  155.5878   30.3660 H   0  0  0  0  0  0  0  0  0  0  0  0
   51.1018  153.5939   29.0477 H   0  0  0  0  0  0  0  0  0  0  0  0
  1  2  1  0
  2  3  2  0
  3  4  1  0
  4  5  1  0
  5  6  1  0
  6  7  1  0
  7  8  2  0
  8  9  1  0
  9 10  2  0
 10 11  1  0
 11 12  1  0
 11 13  2  0
 13 14  1  0
 14 15  2  0
 14 16  1  0
 16 17  1  0
  4 18  2  0
 18 19  1  0
 19 20  2  0
 20 21  1  0
 21 22  1  0
 21 23  1  0
 21 24  1  0
 20  2  1  0
 16  5  2  0
 13  7  1  0
  1 25  1  0
  1 26  1  0
  1 27  1  0
  3 28  1  0
  8 29  1  0
  9 30  1  0
 10 31  1  0
 12 32  1  0
 17 33  1  0
 18 34  1  0
 19 35  1  0
M  END
>  <meeko>  (4) 
{"is_sidechain": [false], "free_energy": -11.378, "intermolecular_energy": -13.505, "internal_energy": 0.007}

$$$$
cand_003_out
     RDKit          3D

 35 37  0  0  0  0  0  0  0  0999 V2000
   51.7170  153.3730   28.8590 C   0  0  0  0  0  0  0  0  0  0  0  0
   52.0180  154.7840   28.4290 C   0  0  0  0  0  0  0  0  0  0  0  0
   51.5600  155.8530   29.2220 C   0  0  0  0  0  0  0  0  0  0  0  0
   51.8210  157.1880   28.8780 C   0  0  0  0  0  0  0  0  0  0  0  0
   51.2990  158.2820   29.7250 C   0  0  0  0  0  0  0  0  0  0  0  0
   49.9660  158.1030   30.0780 O   0  0  0  0  0  0  0  0  0  0  0  0
   49.3560  159.0470   30.8640 C   0  0  0  0  0  0  0  0  0  0  0  0
   48.0150  158.8360   31.1830 C   0  0  0  0  0  0  0  0  0  0  0  0
   47.3340  159.7570   31.9820 C   0  0  0  0  0  0  0  0  0  0  0  0
   47.9950  160.8900   32.4620 C   0  0  0  0  0  0  0  0  0  0  0  0
   49.3350  161.0980   32.1430 C   0  0  0  0  0  0  0  0  0  0  0  0
   49.9220  162.2260   32.6470 O   0  0  0  0  0  0  0  0  0  0  0  0
   50.0150  160.1760   31.3430 C   0  0  0  0  0  0  0  0  0  0  0  0
   51.4220  160.3580   30.9840 C   0  0  0  0  0  0  0  0  0  0  0  0
   52.0740  161.3240   31.3740 O   0  0  0  0  0  0  0  0  0  0  0  0
   52.0490  159.3260   30.1250 C   0  0  0  0  0  0  0  0  0  0  0  0
   53.3820  159.4990   29.8030 O   0  0  0  0  0  0  0  0  0  0  0  0
   52.5430  157.4450   27.7080 C   0  0  0  0  0  0  0  0  0  0  0  0
   53.0070  156.3950   26.9120 C   0  0  0  0  0  0  0  0  0  0  0  0
   52.7580  155.0560   27.2590 C   0  0  0  0  0  0  0  0  0  0  0  0
   53.2780  153.9460   26.3710 C   0  0  0  0  0  0  0  0  0  0  0  0
   52.3020  153.3700   25.6160 F   0  0  0  0  0  0  0  0  0  0  0  0
   53.8580  152.9220   27.0620 F   0  0  0  0  0  0  0  0  0  0  0  0
   54.2280  154.3760   25.4930 F   0  0  0  0  0  0  0  0  0  0  0  0
   51.7055  153.3190   29.9576 H   0  0  0  0  0  0  0  0  0  0  0  0
   50.7344  153.0719   28.4668 H   0  0  0  0  0  0  0  0  0  0  0  0
   52.4912  152.6971   28.4668 H   0  0  0  0  0  0  0  0  0  0  0  0
   50.9835  155.6365   30.1335 H   0  0  0  0  0  0  0  0  0  0  0  0
   47.4936  157.9441   30.8053 H   0  0  0  0  0  0  0  0  0  0  0  0
   46.2762  159.5900   32.2335 H   0  0  0  0  0  0  0  0  0  0  0  0
   47.4587  161.6163   33.0904 H   0  0  0  0  0  0  0  0  0  0  0  0
   49.7040  163.0660   32.2920 H   0  0  0  0  0  0  0  0  0  0  0  0
   53.8220  160.2920   30.0400 H   0  0  0  0  0  0  0  0  0  0  0  0
   52.7475  158.4844   27.4117 H   0  0  0  0  0  0  0  0  0  0  0  0
   53.5768  156.6199   25.9983 H   0  0  0  0  0  0  0  0  0  0  0  0
  1  2  1  0
  2  3  2  0
  3  4  1  0
  4  5  1  0
  5  6  1  0
  6  7  1  0
  7  8  2  0
  8  9  1  0
  9 10  2  0
 10 11  1  0
 11 12  1  0
 11 13  2  0
 13 14  1  0
 14 15  2  0
 14 16  1  0
 16 17  1  0
  4 18  2  0
 18 19  1  0
 19 20  2  0
 20 21  1  0
 21 22  1  0
 21 23  1  0
 21 24  1  0
 20  2  1  0
 16  5  2  0
 13  7  1  0
  1 25  1  0
  1 26  1  0
  1 27  1  0
  3 28  1  0
  8 29  1  0
  9 30  1  0
 10 31  1  0
 12 32  1  0
 17 33  1  0
 18 34  1  0
 19 35  1  0
M  END
>  <meeko>  (5) 
{"is_sidechain": [false], "free_energy": -10.771, "intermolecular_energy": -12.711, "internal_energy": -0.074}

$$$$
