cand_017_out
     RDKit          3D

 38 40  0  0  0  0  0  0  0  0999 V2000
   47.2800  159.5670   30.6570 C   0  0  0  0  0  0  0  0  0  0  0  0
   48.3140  158.8650   31.5260 C   0  0  0  0  0  0  0  0  0  0  0  0
   49.6950  158.9100   30.9110 C   0  0  0  0  0  0  0  0  0  0  0  0
   50.1450  157.7760   30.2040 C   0  0  0  0  0  0  0  0  0  0  0  0
   51.4080  157.7360   29.5990 C   0  0  0  0  0  0  0  0  0  0  0  0
   51.8690  156.5550   28.8370 C   0  0  0  0  0  0  0  0  0  0  0  0
   52.4520  156.8910   27.6210 O   0  0  0  0  0  0  0  0  0  0  0  0
   52.9230  155.8880   26.8130 C   0  0  0  0  0  0  0  0  0  0  0  0
   53.4870  156.2680   25.5940 C   0  0  0  0  0  0  0  0  0  0  0  0
   53.9880  155.2960   24.7250 C   0  0  0  0  0  0  0  0  0  0  0  0
   53.9240  153.9470   25.0740 C   0  0  0  0  0  0  0  0  0  0  0  0
   53.3620  153.5690   26.2900 C   0  0  0  0  0  0  0  0  0  0  0  0
   53.3330  152.2300   26.5690 O   0  0  0  0  0  0  0  0  0  0  0  0
   52.8610  154.5410   27.1600 C   0  0  0  0  0  0  0  0  0  0  0  0
   52.2600  154.1890   28.4470 C   0  0  0  0  0  0  0  0  0  0  0  0
   52.1750  153.0230   28.8290 O   0  0  0  0  0  0  0  0  0  0  0  0
   51.7520  155.2940   29.2920 C   0  0  0  0  0  0  0  0  0  0  0  0
   51.1990  154.9500   30.5120 O   0  0  0  0  0  0  0  0  0  0  0  0
   52.2250  158.8670   29.6920 C   0  0  0  0  0  0  0  0  0  0  0  0
   51.7940  160.0020   30.3850 C   0  0  0  0  0  0  0  0  0  0  0  0
   50.5310  160.0440   30.9990 C   0  0  0  0  0  0  0  0  0  0  0  0
   50.1260  161.2890   31.7540 C   0  0  0  0  0  0  0  0  0  0  0  0
   49.8050  161.0460   33.0560 F   0  0  0  0  0  0  0  0  0  0  0  0
   49.0360  161.9170   31.2250 F   0  0  0  0  0  0  0  0  0  0  0  0
   46.5411  160.0686   31.2992 H   0  0  0  0  0  0  0  0  0  0  0  0
   47.7803  160.3129   30.0219 H   0  0  0  0  0  0  0  0  0  0  0  0
   46.7714  158.8267   30.0219 H   0  0  0  0  0  0  0  0  0  0  0  0
   48.3464  159.3587   32.5084 H   0  0  0  0  0  0  0  0  0  0  0  0
   48.0183  157.8097   31.6208 H   0  0  0  0  0  0  0  0  0  0  0  0
   49.4862  156.8986   30.1253 H   0  0  0  0  0  0  0  0  0  0  0  0
   53.5368  157.3317   25.3181 H   0  0  0  0  0  0  0  0  0  0  0  0
   54.4334  155.5946   23.7646 H   0  0  0  0  0  0  0  0  0  0  0  0
   54.3176  153.1821   24.3884 H   0  0  0  0  0  0  0  0  0  0  0  0
   54.0760  151.8180   26.9630 H   0  0  0  0  0  0  0  0  0  0  0  0
   51.4860  154.1770   30.9550 H   0  0  0  0  0  0  0  0  0  0  0  0
   53.2163  158.8636   29.2153 H   0  0  0  0  0  0  0  0  0  0  0  0
   52.4558  160.8782   30.4508 H   0  0  0  0  0  0  0  0  0  0  0  0
   51.0218  161.9225   31.6743 H   0  0  0  0  0  0  0  0  0  0  0  0
  1  2  1  0
  2  3  1  0
  3  4  2  0
  4  5  1  0
  5  6  1  0
  6  7  1  0
  7  8  1  0
  8  9  2  0
  9 10  1  0
 10 11  2  0
 11 12  1  0
 12 13  1  0
 12 14  2  0
 14 15  1  0
 15 16  2  0
 15 17  1  0
 17 18  1  0
  5 19  2  0
 19 20  1  0
 20 21  2  0
 21 22  1  0
 22 23  1  0
 22 24  1  0
 21  3  1  0
 17  6  2  0
 14  8  1  0
  1 25  1  0
  1 26  1  0
  1 27  1  0
  2 28  1  0
  2 29  1  0
  4 30  1  0
  9 31  1  0
 10 32  1  0
 11 33  1  0
 13 34  1  0
 18 35  1  0
 19 36  1  0
 20 37  1  0
 22 38  1  0
M  END
>  <meeko>  (1) 
{"is_sidechain": [false], "free_energy": -10.789, "intermolecular_energy": -13.311, "internal_energy": -0.121}

$$$$
cand_017_out
     RDKit          3D

 38 40  0  0  0  0  0  0  0  0999 V2000
   54.2090  156.2140   24.9930 C   0  0  0  0  0  0  0  0  0  0  0  0
   53.2230  155.0580   25.0850 C   0  0  0  0  0  0  0  0  0  0  0  0
   52.6460  154.9150   26.4760 C   0  0  0  0  0  0  0  0  0  0  0  0
   52.3700  156.0910   27.2040 C   0  0  0  0  0  0  0  0  0  0  0  0
   51.8280  156.0500   28.4960 C   0  0  0  0  0  0  0  0  0  0  0  0
   51.5160  157.2830   29.2480 C   0  0  0  0  0  0  0  0  0  0  0  0
   50.2140  157.3060   29.7320 O   0  0  0  0  0  0  0  0  0  0  0  0
   49.7930  158.3960   30.4500 C   0  0  0  0  0  0  0  0  0  0  0  0
   48.4720  158.3850   30.9030 C   0  0  0  0  0  0  0  0  0  0  0  0
   47.9800  159.4640   31.6420 C   0  0  0  0  0  0  0  0  0  0  0  0
   48.8060  160.5520   31.9250 C   0  0  0  0  0  0  0  0  0  0  0  0
   50.1230  160.5610   31.4730 C   0  0  0  0  0  0  0  0  0  0  0  0
   50.8770  161.6580   31.7880 O   0  0  0  0  0  0  0  0  0  0  0  0
   50.6150  159.4820   30.7340 C   0  0  0  0  0  0  0  0  0  0  0  0
   51.9910  159.4510   30.2370 C   0  0  0  0  0  0  0  0  0  0  0  0
   52.7830  160.3690   30.4530 O   0  0  0  0  0  0  0  0  0  0  0  0
   52.4130  158.2650   29.4570 C   0  0  0  0  0  0  0  0  0  0  0  0
   53.7200  158.2410   29.0050 O   0  0  0  0  0  0  0  0  0  0  0  0
   51.5430  154.8010   29.0560 C   0  0  0  0  0  0  0  0  0  0  0  0
   51.8060  153.6250   28.3480 C   0  0  0  0  0  0  0  0  0  0  0  0
   52.3550  153.6620   27.0550 C   0  0  0  0  0  0  0  0  0  0  0  0
   52.6400  152.3580   26.3440 C   0  0  0  0  0  0  0  0  0  0  0  0
   51.9230  151.3100   26.8380 F   0  0  0  0  0  0  0  0  0  0  0  0
   53.9460  151.9690   26.4230 F   0  0  0  0  0  0  0  0  0  0  0  0
   54.4872  156.5402   26.0060 H   0  0  0  0  0  0  0  0  0  0  0  0
   55.1095  155.8858   24.4532 H   0  0  0  0  0  0  0  0  0  0  0  0
   53.7428  157.0515   24.4532 H   0  0  0  0  0  0  0  0  0  0  0  0
   52.4009  155.2351   24.3759 H   0  0  0  0  0  0  0  0  0  0  0  0
   53.7632  154.1305   24.8441 H   0  0  0  0  0  0  0  0  0  0  0  0
   52.5860  157.0672   26.7453 H   0  0  0  0  0  0  0  0  0  0  0  0
   47.8198  157.5282   30.6784 H   0  0  0  0  0  0  0  0  0  0  0  0
   46.9403  159.4555   32.0010 H   0  0  0  0  0  0  0  0  0  0  0  0
   48.4172  161.4021   32.5048 H   0  0  0  0  0  0  0  0  0  0  0  0
   51.5330  161.6010   32.4530 H   0  0  0  0  0  0  0  0  0  0  0  0
   54.0490  158.9490   28.4890 H   0  0  0  0  0  0  0  0  0  0  0  0
   51.1072  154.7433   30.0644 H   0  0  0  0  0  0  0  0  0  0  0  0
   51.5792  152.6533   28.8111 H   0  0  0  0  0  0  0  0  0  0  0  0
   52.3575  152.5820   25.3048 H   0  0  0  0  0  0  0  0  0  0  0  0
  1  2  1  0
  2  3  1  0
  3  4  2  0
  4  5  1  0
  5  6  1  0
  6  7  1  0
  7  8  1  0
  8  9  2  0
  9 10  1  0
 10 11  2  0
 11 12  1  0
 12 13  1  0
 12 14  2  0
 14 15  1  0
 15 16  2  0
 15 17  1  0
 17 18  1  0
  5 19  2  0
 19 20  1  0
 20 21  2  0
 21 22  1  0
 22 23  1  0
 22 24  1  0
 21  3  1  0
 17  6  2  0
 14  8  1  0
  1 25  1  0
  1 26  1  0
  1 27  1  0
  2 28  1  0
  2 29  1  0
  4 30  1  0
  9 31  1  0
 10 32  1  0
 11 33  1  0
 13 34  1  0
 18 35  1  0
 19 36  1  0
 20 37  1  0
 22 38  1  0
M  END
>  <meeko>  (2) 
{"is_sidechain": [false], "free_energy": -10.625, "intermolecular_energy": -12.772, "internal_energy": -0.457}

$$$$
cand_017_out
     RDKit          3D

 38 40  0  0  0  0  0  0  0  0999 V2000
   52.7320  161.2210   31.7550 C   0  0  0  0  0  0  0  0  0  0  0  0
   51.9260  161.1450   30.4660 C   0  0  0  0  0  0  0  0  0  0  0  0
   51.1480  159.8510   30.3600 C   0  0  0  0  0  0  0  0  0  0  0  0
   51.7320  158.7820   29.6490 C   0  0  0  0  0  0  0  0  0  0  0  0
   51.0830  157.5480   29.5080 C   0  0  0  0  0  0  0  0  0  0  0  0
   51.7060  156.4200   28.7830 C   0  0  0  0  0  0  0  0  0  0  0  0
   52.2720  156.8030   27.5720 O   0  0  0  0  0  0  0  0  0  0  0  0
   52.8850  155.8510   26.7980 C   0  0  0  0  0  0  0  0  0  0  0  0
   53.4240  156.2760   25.5820 C   0  0  0  0  0  0  0  0  0  0  0  0
   54.0640  155.3580   24.7460 C   0  0  0  0  0  0  0  0  0  0  0  0
   54.1640  154.0180   25.1240 C   0  0  0  0  0  0  0  0  0  0  0  0
   53.6250  153.5970   26.3370 C   0  0  0  0  0  0  0  0  0  0  0  0
   53.7590  152.2710   26.6460 O   0  0  0  0  0  0  0  0  0  0  0  0
   52.9840  154.5150   27.1730 C   0  0  0  0  0  0  0  0  0  0  0  0
   52.4030  154.1150   28.4550 C   0  0  0  0  0  0  0  0  0  0  0  0
   52.4570  152.9560   28.8620 O   0  0  0  0  0  0  0  0  0  0  0  0
   51.7390  155.1640   29.2640 C   0  0  0  0  0  0  0  0  0  0  0  0
   51.2050  154.7770   30.4800 O   0  0  0  0  0  0  0  0  0  0  0  0
   49.8320  157.3830   30.1100 C   0  0  0  0  0  0  0  0  0  0  0  0
   49.2400  158.4300   30.8220 C   0  0  0  0  0  0  0  0  0  0  0  0
   49.8840  159.6710   30.9610 C   0  0  0  0  0  0  0  0  0  0  0  0
   49.1870  160.7750   31.7220 C   0  0  0  0  0  0  0  0  0  0  0  0
   48.4150  160.3160   32.7470 F   0  0  0  0  0  0  0  0  0  0  0  0
   48.3490  161.5260   30.9490 F   0  0  0  0  0  0  0  0  0  0  0  0
   52.0518  161.1569   32.6171 H   0  0  0  0  0  0  0  0  0  0  0  0
   53.4476  160.3863   31.7897 H   0  0  0  0  0  0  0  0  0  0  0  0
   53.2790  162.1747   31.7897 H   0  0  0  0  0  0  0  0  0  0  0  0
   51.2194  161.9876   30.4386 H   0  0  0  0  0  0  0  0  0  0  0  0
   52.6298  161.1888   29.6218 H   0  0  0  0  0  0  0  0  0  0  0  0
   52.7234  158.9206   29.1930 H   0  0  0  0  0  0  0  0  0  0  0  0
   53.3448  157.3316   25.2830 H   0  0  0  0  0  0  0  0  0  0  0  0
   54.4899  155.6916   23.7882 H   0  0  0  0  0  0  0  0  0  0  0  0
   54.6678  153.2958   24.4648 H   0  0  0  0  0  0  0  0  0  0  0  0
   53.1880  151.8760   27.2740 H   0  0  0  0  0  0  0  0  0  0  0  0
   51.0010  153.8770   30.6360 H   0  0  0  0  0  0  0  0  0  0  0  0
   49.3084  156.4196   30.0224 H   0  0  0  0  0  0  0  0  0  0  0  0
   48.2521  158.2797   31.2818 H   0  0  0  0  0  0  0  0  0  0  0  0
   50.0276  161.3796   32.0933 H   0  0  0  0  0  0  0  0  0  0  0  0
  1  2  1  0
  2  3  1  0
  3  4  2  0
  4  5  1  0
  5  6  1  0
  6  7  1  0
  7  8  1  0
  8  9  2  0
  9 10  1  0
 10 11  2  0
 11 12  1  0
 12 13  1  0
 12 14  2  0
 14 15  1  0
 15 16  2  0
 15 17  1  0
 17 18  1  0
  5 19  2  0
 19 20  1  0
 20 21  2  0
 21 22  1  0
 22 23  1  0
 22 24  1  0
 21  3  1  0
 17  6  2  0
 14  8  1  0
  1 25  1  0
  1 26  1  0
  1 27  1  0
  2 28  1  0
  2 29  1  0
  4 30  1  0
  9 31  1  0
 10 32  1  0
 11 33  1  0
 13 34  1  0
 18 35  1  0
 19 36  1  0
 20 37  1  0
 22 38  1  0
M  END
>  <meeko>  (3) 
{"is_sidechain": [false], "free_energy": -10.464, "intermolecular_energy": -12.738, "internal_energy": -0.294}

$$$$
cand_017_out
     RDKit          3D

 38 40  0  0  0  0  0  0  0  0999 V2000
   48.2660  158.4530   29.8090 C   0  0  0  0  0  0  0  0  0  0  0  0
   49.3210  157.7330   30.6380 C   0  0  0  0  0  0  0  0  0  0  0  0
   50.6290  157.5900   29.8910 C   0  0  0  0  0  0  0  0  0  0  0  0
   50.8890  156.3680   29.2370 C   0  0  0  0  0  0  0  0  0  0  0  0
   52.0730  156.1530   28.5170 C   0  0  0  0  0  0  0  0  0  0  0  0
   52.3330  154.8810   27.8110 C   0  0  0  0  0  0  0  0  0  0  0  0
   53.0810  155.0490   26.6520 O   0  0  0  0  0  0  0  0  0  0  0  0
   53.3950  153.9470   25.9000 C   0  0  0  0  0  0  0  0  0  0  0  0
   54.1330  154.1630   24.7350 C   0  0  0  0  0  0  0  0  0  0  0  0
   54.4880  153.0830   23.9240 C   0  0  0  0  0  0  0  0  0  0  0  0
   54.1040  151.7880   24.2760 C   0  0  0  0  0  0  0  0  0  0  0  0
   53.3680  151.5740   25.4380 C   0  0  0  0  0  0  0  0  0  0  0  0
   53.0260  150.2800   25.7240 O   0  0  0  0  0  0  0  0  0  0  0  0
   53.0130  152.6550   26.2500 C   0  0  0  0  0  0  0  0  0  0  0  0
   52.2390  152.4750   27.4780 C   0  0  0  0  0  0  0  0  0  0  0  0
   51.8700  151.3650   27.8600 O   0  0  0  0  0  0  0  0  0  0  0  0
   51.9070  153.6870   28.2640 C   0  0  0  0  0  0  0  0  0  0  0  0
   51.1870  153.5040   29.4300 O   0  0  0  0  0  0  0  0  0  0  0  0
   53.0010  157.1960   28.4410 C   0  0  0  0  0  0  0  0  0  0  0  0
   52.7580  158.4150   29.0800 C   0  0  0  0  0  0  0  0  0  0  0  0
   51.5760  158.6320   29.8070 C   0  0  0  0  0  0  0  0  0  0  0  0
   51.3760  159.9620   30.4960 C   0  0  0  0  0  0  0  0  0  0  0  0
   50.8860  159.8430   31.7620 F   0  0  0  0  0  0  0  0  0  0  0  0
   50.5010  160.7860   29.8480 F   0  0  0  0  0  0  0  0  0  0  0  0
   47.5456  158.9446   30.4793 H   0  0  0  0  0  0  0  0  0  0  0  0
   48.7514  159.2091   29.1744 H   0  0  0  0  0  0  0  0  0  0  0  0
   47.7388  157.7254   29.1744 H   0  0  0  0  0  0  0  0  0  0  0  0
   49.4995  158.3055   31.5602 H   0  0  0  0  0  0  0  0  0  0  0  0
   48.9459  156.7236   30.8624 H   0  0  0  0  0  0  0  0  0  0  0  0
   50.1429  155.5617   29.2931 H   0  0  0  0  0  0  0  0  0  0  0  0
   54.4348  155.1833   24.4559 H   0  0  0  0  0  0  0  0  0  0  0  0
   55.0709  153.2530   23.0068 H   0  0  0  0  0  0  0  0  0  0  0  0
   54.3826  150.9378   23.6361 H   0  0  0  0  0  0  0  0  0  0  0  0
   53.6550  149.7040   26.1110 H   0  0  0  0  0  0  0  0  0  0  0  0
   50.2710  153.3130   29.3890 H   0  0  0  0  0  0  0  0  0  0  0  0
   53.9321  157.0557   27.8723 H   0  0  0  0  0  0  0  0  0  0  0  0
   53.5058  159.2188   29.0124 H   0  0  0  0  0  0  0  0  0  0  0  0
   52.3904  160.3874   30.4977 H   0  0  0  0  0  0  0  0  0  0  0  0
  1  2  1  0
  2  3  1  0
  3  4  2  0
  4  5  1  0
  5  6  1  0
  6  7  1  0
  7  8  1  0
  8  9  2  0
  9 10  1  0
 10 11  2  0
 11 12  1  0
 12 13  1  0
 12 14  2  0
 14 15  1  0
 15 16  2  0
 15 17  1  0
 17 18  1  0
  5 19  2  0
 19 20  1  0
 20 21  2  0
 21 22  1  0
 22 23  1  0
 22 24  1  0
 21  3  1  0
 17  6  2  0
 14  8  1  0
  1 25  1  0
  1 26  1  0
  1 27  1  0
  2 28  1  0
  2 29  1  0
  4 30  1  0
  9 31  1  0
 10 32  1  0
 11 33  1  0
 13 34  1  0
 18 35  1  0
 19 36  1  0
 20 37  1  0
 22 38  1  0
M  END
>  <meeko>  (4) 
{"is_sidechain": [false], "free_energy": -9.519, "intermolecular_energy": -11.838, "internal_energy": -0.028}

$$$$
cand_017_out
     RDKit          3D

 38 40  0  0  0  0  0  0  0  0999 V2000
   54.1140  156.6040   25.1740 C   0  0  0  0  0  0  0  0  0  0  0  0
   53.4460  155.2390   25.2660 C   0  0  0  0  0  0  0  0  0  0  0  0
   52.8810  154.9760   26.6440 C   0  0  0  0  0  0  0  0  0  0  0  0
   52.3110  156.0590   27.3450 C   0  0  0  0  0  0  0  0  0  0  0  0
   51.7600  155.9020   28.6250 C   0  0  0  0  0  0  0  0  0  0  0  0
   51.1410  157.0330   29.3480 C   0  0  0  0  0  0  0  0  0  0  0  0
   52.0290  158.0750   29.5830 O   0  0  0  0  0  0  0  0  0  0  0  0
   51.5830  159.1890   30.2480 C   0  0  0  0  0  0  0  0  0  0  0  0
   52.5130  160.2050   30.4770 C   0  0  0  0  0  0  0  0  0  0  0  0
   52.1230  161.3670   31.1470 C   0  0  0  0  0  0  0  0  0  0  0  0
   50.8070  161.5130   31.5870 C   0  0  0  0  0  0  0  0  0  0  0  0
   49.8820  160.4990   31.3580 C   0  0  0  0  0  0  0  0  0  0  0  0
   48.6090  160.7080   31.8150 O   0  0  0  0  0  0  0  0  0  0  0  0
   50.2710  159.3360   30.6880 C   0  0  0  0  0  0  0  0  0  0  0  0
   49.3310  158.2450   30.4270 C   0  0  0  0  0  0  0  0  0  0  0  0
   48.1530  158.3020   30.7760 O   0  0  0  0  0  0  0  0  0  0  0  0
   49.8460  157.0520   29.7160 C   0  0  0  0  0  0  0  0  0  0  0  0
   48.9460  156.0330   29.4630 O   0  0  0  0  0  0  0  0  0  0  0  0
   51.7670  154.6270   29.1980 C   0  0  0  0  0  0  0  0  0  0  0  0
   52.3230  153.5420   28.5170 C   0  0  0  0  0  0  0  0  0  0  0  0
   52.8830  153.6960   27.2370 C   0  0  0  0  0  0  0  0  0  0  0  0
   53.4910  152.4920   26.5550 C   0  0  0  0  0  0  0  0  0  0  0  0
   54.8300  152.6190   26.3340 F   0  0  0  0  0  0  0  0  0  0  0  0
   52.9490  152.2260   25.3310 F   0  0  0  0  0  0  0  0  0  0  0  0
   54.3024  156.9890   26.1870 H   0  0  0  0  0  0  0  0  0  0  0  0
   55.0678  156.5098   24.6342 H   0  0  0  0  0  0  0  0  0  0  0  0
   53.4544  157.2994   24.6342 H   0  0  0  0  0  0  0  0  0  0  0  0
   52.6277  155.1940   24.5322 H   0  0  0  0  0  0  0  0  0  0  0  0
   54.2083  154.4733   25.0597 H   0  0  0  0  0  0  0  0  0  0  0  0
   52.2983  157.0535   26.8751 H   0  0  0  0  0  0  0  0  0  0  0  0
   53.5507  160.0906   30.1305 H   0  0  0  0  0  0  0  0  0  0  0  0
   52.8546  162.1683   31.3280 H   0  0  0  0  0  0  0  0  0  0  0  0
   50.5011  162.4286   32.1143 H   0  0  0  0  0  0  0  0  0  0  0  0
   47.8960  160.7580   31.2100 H   0  0  0  0  0  0  0  0  0  0  0  0
   48.6370  155.8870   28.5910 H   0  0  0  0  0  0  0  0  0  0  0  0
   51.3298  154.4767   30.1961 H   0  0  0  0  0  0  0  0  0  0  0  0
   52.3227  152.5492   28.9907 H   0  0  0  0  0  0  0  0  0  0  0  0
   53.2771  151.6798   27.2654 H   0  0  0  0  0  0  0  0  0  0  0  0
  1  2  1  0
  2  3  1  0
  3  4  2  0
  4  5  1  0
  5  6  1  0
  6  7  1  0
  7  8  1  0
  8  9  2  0
  9 10  1  0
 10 11  2  0
 11 12  1  0
 12 13  1  0
 12 14  2  0
 14 15  1  0
 15 16  2  0
 15 17  1  0
 17 18  1  0
  5 19  2  0
 19 20  1  0
 20 21  2  0
 21 22  1  0
 22 23  1  0
 22 24  1  0
 21  3  1  0
 17  6  2  0
 14  8  1  0
  1 25  1  0
  1 26  1  0
  1 27  1  0
  2 28  1  0
  2 29  1  0
  4 30  1  0
  9 31  1  0
 10 32  1  0
 11 33  1  0
 13 34  1  0
 18 35  1  0
 19 36  1  0
 20 37  1  0
 22 38  1  0
M  END
>  <meeko>  (5) 
{"is_sidechain": [false], "free_energy": -9.244, "intermolecular_energy": -11.135, "internal_energy": -0.392}

$$$$
cand_017_out
     RDKit          3D

 38 40  0  0  0  0  0  0  0  0999 V2000
   51.4810  152.4540   27.8530 C   0  0  0  0  0  0  0  0  0  0  0  0
   52.2070  153.3560   28.8400 C   0  0  0  0  0  0  0  0  0  0  0  0
   52.3150  154.7780   28.3350 C   0  0  0  0  0  0  0  0  0  0  0  0
   51.8400  155.8150   29.1640 C   0  0  0  0  0  0  0  0  0  0  0  0
   51.9070  157.1600   28.7760 C   0  0  0  0  0  0  0  0  0  0  0  0
   51.4310  158.2480   29.6570 C   0  0  0  0  0  0  0  0  0  0  0  0
   50.0990  158.1010   30.0260 O   0  0  0  0  0  0  0  0  0  0  0  0
   49.5300  159.0440   30.8430 C   0  0  0  0  0  0  0  0  0  0  0  0
   48.1860  158.8660   31.1760 C   0  0  0  0  0  0  0  0  0  0  0  0
   47.5460  159.7890   32.0070 C   0  0  0  0  0  0  0  0  0  0  0  0
   48.2480  160.8870   32.5040 C   0  0  0  0  0  0  0  0  0  0  0  0
   49.5890  161.0630   32.1710 C   0  0  0  0  0  0  0  0  0  0  0  0
   50.2170  162.1600   32.6940 O   0  0  0  0  0  0  0  0  0  0  0  0
   50.2290  160.1400   31.3400 C   0  0  0  0  0  0  0  0  0  0  0  0
   51.6360  160.2860   30.9640 C   0  0  0  0  0  0  0  0  0  0  0  0
   52.3240  161.2230   31.3680 O   0  0  0  0  0  0  0  0  0  0  0  0
   52.2180  159.2580   30.0720 C   0  0  0  0  0  0  0  0  0  0  0  0
   53.5520  159.3990   29.7340 O   0  0  0  0  0  0  0  0  0  0  0  0
   52.4800  157.4660   27.5390 C   0  0  0  0  0  0  0  0  0  0  0  0
   52.9600  156.4520   26.7050 C   0  0  0  0  0  0  0  0  0  0  0  0
   52.8890  155.1020   27.0870 C   0  0  0  0  0  0  0  0  0  0  0  0
   53.4030  154.0450   26.1370 C   0  0  0  0  0  0  0  0  0  0  0  0
   54.5270  154.4260   25.4670 F   0  0  0  0  0  0  0  0  0  0  0  0
   52.5060  153.7020   25.1670 F   0  0  0  0  0  0  0  0  0  0  0  0
   50.8842  151.7125   28.4044 H   0  0  0  0  0  0  0  0  0  0  0  0
   50.8173  153.0618   27.2205 H   0  0  0  0  0  0  0  0  0  0  0  0
   52.2166  151.9355   27.2205 H   0  0  0  0  0  0  0  0  0  0  0  0
   51.6551  153.3580   29.7915 H   0  0  0  0  0  0  0  0  0  0  0  0
   53.2263  152.9641   28.9720 H   0  0  0  0  0  0  0  0  0  0  0  0
   51.4050  155.5614   30.1420 H   0  0  0  0  0  0  0  0  0  0  0  0
   47.6316  158.0002   30.7847 H   0  0  0  0  0  0  0  0  0  0  0  0
   46.4870  159.6495   32.2697 H   0  0  0  0  0  0  0  0  0  0  0  0
   47.7432  161.6131   33.1582 H   0  0  0  0  0  0  0  0  0  0  0  0
   51.0180  162.4650   32.3170 H   0  0  0  0  0  0  0  0  0  0  0  0
   53.9800  158.7350   29.2320 H   0  0  0  0  0  0  0  0  0  0  0  0
   52.5542  158.5155   27.2181 H   0  0  0  0  0  0  0  0  0  0  0  0
   53.4011  156.7158   25.7325 H   0  0  0  0  0  0  0  0  0  0  0  0
   53.6044  153.1957   26.8065 H   0  0  0  0  0  0  0  0  0  0  0  0
  1  2  1  0
  2  3  1  0
  3  4  2  0
  4  5  1  0
  5  6  1  0
  6  7  1  0
  7  8  1  0
  8  9  2  0
  9 10  1  0
 10 11  2  0
 11 12  1  0
 12 13  1  0
 12 14  2  0
 14 15  1  0
 15 16  2  0
 15 17  1  0
 17 18  1  0
  5 19  2  0
 19 20  1  0
 20 21  2  0
 21 22  1  0
 22 23  1  0
 22 24  1  0
 21  3  1  0
 17  6  2  0
 14  8  1  0
  1 25  1  0
  1 26  1  0
  1 27  1  0
  2 28  1  0
  2 29  1  0
  4 30  1  0
  9 31  1  0
 10 32  1  0
 11 33  1  0
 13 34  1  0
 18 35  1  0
 19 36  1  0
 20 37  1  0
 22 38  1  0
M  END
>  <meeko>  (6) 
{"is_sidechain": [false], "free_energy": -8.801, "intermolecular_energy": -11.051, "internal_energy": 0.071}

$$$$
cand_017_out
     RDKit          3D

 38 40  0  0  0  0  0  0  0  0999 V2000
   51.8600  152.1330   27.0760 C   0  0  0  0  0  0  0  0  0  0  0  0
   52.7930  152.9300   27.9760 C   0  0  0  0  0  0  0  0  0  0  0  0
   52.7740  154.4060   27.6470 C   0  0  0  0  0  0  0  0  0  0  0  0
   52.1160  155.2770   28.5400 C   0  0  0  0  0  0  0  0  0  0  0  0
   52.0560  156.6590   28.3140 C   0  0  0  0  0  0  0  0  0  0  0  0
   51.3870  157.5740   29.2640 C   0  0  0  0  0  0  0  0  0  0  0  0
   52.1380  158.7100   29.5400 O   0  0  0  0  0  0  0  0  0  0  0  0
   51.6330  159.6430   30.4080 C   0  0  0  0  0  0  0  0  0  0  0  0
   52.4270  160.7610   30.6700 C   0  0  0  0  0  0  0  0  0  0  0  0
   51.9710  161.7510   31.5430 C   0  0  0  0  0  0  0  0  0  0  0  0
   50.7230  161.6230   32.1540 C   0  0  0  0  0  0  0  0  0  0  0  0
   49.9320  160.5080   31.8910 C   0  0  0  0  0  0  0  0  0  0  0  0
   48.7190  160.4470   32.5230 O   0  0  0  0  0  0  0  0  0  0  0  0
   50.3880  159.5180   31.0180 C   0  0  0  0  0  0  0  0  0  0  0  0
   49.5900  158.3290   30.7150 C   0  0  0  0  0  0  0  0  0  0  0  0
   48.4770  158.1480   31.2070 O   0  0  0  0  0  0  0  0  0  0  0  0
   50.1680  157.3340   29.7820 C   0  0  0  0  0  0  0  0  0  0  0  0
   49.3990  156.2220   29.4920 O   0  0  0  0  0  0  0  0  0  0  0  0
   52.6880  157.1740   27.1780 C   0  0  0  0  0  0  0  0  0  0  0  0
   53.3480  156.3270   26.2840 C   0  0  0  0  0  0  0  0  0  0  0  0
   53.4050  154.9400   26.5030 C   0  0  0  0  0  0  0  0  0  0  0  0
   54.1140  154.0680   25.4920 C   0  0  0  0  0  0  0  0  0  0  0  0
   55.1530  154.6990   24.8740 F   0  0  0  0  0  0  0  0  0  0  0  0
   53.3040  153.6360   24.4820 F   0  0  0  0  0  0  0  0  0  0  0  0
   51.1688  151.5426   27.6954 H   0  0  0  0  0  0  0  0  0  0  0  0
   51.2850  152.8231   26.4410 H   0  0  0  0  0  0  0  0  0  0  0  0
   52.4517  151.4572   26.4410 H   0  0  0  0  0  0  0  0  0  0  0  0
   52.4788  152.7952   29.0215 H   0  0  0  0  0  0  0  0  0  0  0  0
   53.8165  152.5597   27.8171 H   0  0  0  0  0  0  0  0  0  0  0  0
   51.6369  154.8604   29.4383 H   0  0  0  0  0  0  0  0  0  0  0  0
   53.4111  160.8620   30.1891 H   0  0  0  0  0  0  0  0  0  0  0  0
   52.5961  162.6324   31.7492 H   0  0  0  0  0  0  0  0  0  0  0  0
   50.3646  162.4023   32.8427 H   0  0  0  0  0  0  0  0  0  0  0  0
   47.9490  160.7580   32.0900 H   0  0  0  0  0  0  0  0  0  0  0  0
   49.6850  155.3720   29.7640 H   0  0  0  0  0  0  0  0  0  0  0  0
   52.6654  158.2569   26.9862 H   0  0  0  0  0  0  0  0  0  0  0  0
   53.8316  156.7535   25.3928 H   0  0  0  0  0  0  0  0  0  0  0  0
   54.4648  153.2240   26.1041 H   0  0  0  0  0  0  0  0  0  0  0  0
  1  2  1  0
  2  3  1  0
  3  4  2  0
  4  5  1  0
  5  6  1  0
  6  7  1  0
  7  8  1  0
  8  9  2  0
  9 10  1  0
 10 11  2  0
 11 12  1  0
 12 13  1  0
 12 14  2  0
 14 15  1  0
 15 16  2  0
 15 17  1  0
 17 18  1  0
  5 19  2  0
 19 20  1  0
 20 21  2  0
 21 22  1  0
 22 23  1  0
 22 24  1  0
 21  3  1  0
 17  6  2  0
 14  8  1  0
  1 25  1  0
  1 26  1  0
  1 27  1  0
  2 28  1  0
  2 29  1  0
  4 30  1  0
  9 31  1  0
 10 32  1  0
 11 33  1  0
 13 34  1  0
 18 35  1  0
 19 36  1  0
 20 37  1  0
 22 38  1  0
M  END
>  <meeko>  (7) 
{"is_sidechain": [false], "free_energy": -8.426, "intermolecular_energy": -10.263, "internal_energy": -0.254}

$$$$
cand_017_out
     RDKit          3D

 38 40  0  0  0  0  0  0  0  0999 V2000
   48.0780  158.1320   29.7590 C   0  0  0  0  0  0  0  0  0  0  0  0
   49.1010  157.2000   30.3930 C   0  0  0  0  0  0  0  0  0  0  0  0
   50.4640  157.3320   29.7490 C   0  0  0  0  0  0  0  0  0  0  0  0
   50.9010  156.2930   28.9020 C   0  0  0  0  0  0  0  0  0  0  0  0
   52.1470  156.3380   28.2610 C   0  0  0  0  0  0  0  0  0  0  0  0
   52.5940  155.2600   27.3540 C   0  0  0  0  0  0  0  0  0  0  0  0
   52.1080  154.0100   27.7190 O   0  0  0  0  0  0  0  0  0  0  0  0
   52.4480  152.9200   26.9610 C   0  0  0  0  0  0  0  0  0  0  0  0
   51.9520  151.6820   27.3730 C   0  0  0  0  0  0  0  0  0  0  0  0
   52.2590  150.5300   26.6440 C   0  0  0  0  0  0  0  0  0  0  0  0
   53.0610  150.6170   25.5050 C   0  0  0  0  0  0  0  0  0  0  0  0
   53.5550  151.8520   25.0960 C   0  0  0  0  0  0  0  0  0  0  0  0
   54.3330  151.8640   23.9710 O   0  0  0  0  0  0  0  0  0  0  0  0
   53.2480  153.0040   25.8250 C   0  0  0  0  0  0  0  0  0  0  0  0
   53.7470  154.3220   25.4310 C   0  0  0  0  0  0  0  0  0  0  0  0
   54.4520  154.4810   24.4360 O   0  0  0  0  0  0  0  0  0  0  0  0
   53.3710  155.4790   26.2760 C   0  0  0  0  0  0  0  0  0  0  0  0
   53.8370  156.7210   25.8870 O   0  0  0  0  0  0  0  0  0  0  0  0
   52.9570  157.4600   28.4630 C   0  0  0  0  0  0  0  0  0  0  0  0
   52.5380  158.5010   29.2950 C   0  0  0  0  0  0  0  0  0  0  0  0
   51.2920  158.4570   29.9450 C   0  0  0  0  0  0  0  0  0  0  0  0
   50.9000  159.6010   30.8520 C   0  0  0  0  0  0  0  0  0  0  0  0
   50.1650  160.5590   30.2210 F   0  0  0  0  0  0  0  0  0  0  0  0
   51.9680  160.2620   31.3890 F   0  0  0  0  0  0  0  0  0  0  0  0
   47.5123  158.6474   30.5491 H   0  0  0  0  0  0  0  0  0  0  0  0
   48.5961  158.8750   29.1349 H   0  0  0  0  0  0  0  0  0  0  0  0
   47.3864  157.5471   29.1349 H   0  0  0  0  0  0  0  0  0  0  0  0
   49.1884  157.4432   31.4622 H   0  0  0  0  0  0  0  0  0  0  0  0
   48.7550  156.1661   30.2471 H   0  0  0  0  0  0  0  0  0  0  0  0
   50.2467  155.4237   28.7398 H   0  0  0  0  0  0  0  0  0  0  0  0
   51.3200  151.6133   28.2707 H   0  0  0  0  0  0  0  0  0  0  0  0
   51.8684  149.5541   26.9680 H   0  0  0  0  0  0  0  0  0  0  0  0
   53.3024  149.7101   24.9311 H   0  0  0  0  0  0  0  0  0  0  0  0
   54.3480  152.6210   23.4190 H   0  0  0  0  0  0  0  0  0  0  0  0
   53.8980  156.9340   24.9770 H   0  0  0  0  0  0  0  0  0  0  0  0
   53.9340  157.5235   27.9616 H   0  0  0  0  0  0  0  0  0  0  0  0
   53.1947  159.3708   29.4443 H   0  0  0  0  0  0  0  0  0  0  0  0
   50.3136  159.0981   31.6351 H   0  0  0  0  0  0  0  0  0  0  0  0
  1  2  1  0
  2  3  1  0
  3  4  2  0
  4  5  1  0
  5  6  1  0
  6  7  1  0
  7  8  1  0
  8  9  2  0
  9 10  1  0
 10 11  2  0
 11 12  1  0
 12 13  1  0
 12 14  2  0
 14 15  1  0
 15 16  2  0
 15 17  1  0
 17 18  1  0
  5 19  2  0
 19 20  1  0
 20 21  2  0
 21 22  1  0
 22 23  1  0
 22 24  1  0
 21  3  1  0
 17  6  2  0
 14  8  1  0
  1 25  1  0
  1 26  1  0
  1 27  1  0
  2 28  1  0
  2 29  1  0
  4 30  1  0
  9 31  1  0
 10 32  1  0
 11 33  1  0
 13 34  1  0
 18 35  1  0
 19 36  1  0
 20 37  1  0
 22 38  1  0
M  END
>  <meeko>  (8) 
{"is_sidechain": [false], "free_energy": -8.007, "intermolecular_energy": -9.985, "internal_energy": -0.014}

$$$$
