cand_029_out
     RDKit          3D

 50 53  0  0  0  0  0  0  0  0999 V2000
   51.6790  161.7290   30.4200 C   0  0  0  0  0  0  0  0  0  0  0  0
   52.3730  160.4020   30.6850 C   0  0  0  0  0  0  0  0  0  0  0  0
   51.4700  159.2220   30.4000 C   0  0  0  0  0  0  0  0  0  0  0  0
   51.9770  158.1470   29.6430 C   0  0  0  0  0  0  0  0  0  0  0  0
   51.1850  157.0350   29.3240 C   0  0  0  0  0  0  0  0  0  0  0  0
   51.7660  155.9150   28.5530 C   0  0  0  0  0  0  0  0  0  0  0  0
   52.2710  156.3130   27.3200 O   0  0  0  0  0  0  0  0  0  0  0  0
   52.8390  155.3720   26.5000 C   0  0  0  0  0  0  0  0  0  0  0  0
   53.3440  155.8180   25.2780 C   0  0  0  0  0  0  0  0  0  0  0  0
   53.9330  154.9110   24.3950 C   0  0  0  0  0  0  0  0  0  0  0  0
   54.0170  153.5580   24.7330 C   0  0  0  0  0  0  0  0  0  0  0  0
   53.5120  153.1160   25.9540 C   0  0  0  0  0  0  0  0  0  0  0  0
   53.6260  151.7790   26.2210 O   0  0  0  0  0  0  0  0  0  0  0  0
   52.9230  154.0240   26.8370 C   0  0  0  0  0  0  0  0  0  0  0  0
   52.3790  153.6010   28.1290 C   0  0  0  0  0  0  0  0  0  0  0  0
   52.4090  152.4280   28.4940 O   0  0  0  0  0  0  0  0  0  0  0  0
   51.7810  154.6440   28.9950 C   0  0  0  0  0  0  0  0  0  0  0  0
   51.2590  154.2300   30.2060 O   0  0  0  0  0  0  0  0  0  0  0  0
   49.8680  157.0050   29.7900 C   0  0  0  0  0  0  0  0  0  0  0  0
   49.3490  158.0690   30.5350 C   0  0  0  0  0  0  0  0  0  0  0  0
   50.1330  159.1920   30.8430 C   0  0  0  0  0  0  0  0  0  0  0  0
   49.6250  160.2740   31.5950 N   0  0  0  0  0  0  0  0  0  0  0  0
   48.3830  160.8370   31.0440 C   0  0  0  0  0  0  0  0  0  0  0  0
   48.0620  162.1400   31.7780 C   0  0  0  0  0  0  0  0  0  0  0  0
   47.9760  161.9160   33.2860 C   0  0  0  0  0  0  0  0  0  0  0  0
   49.2400  161.2330   33.8090 C   0  0  0  0  0  0  0  0  0  0  0  0
   49.5440  159.9540   33.0280 C   0  0  0  0  0  0  0  0  0  0  0  0
   51.4279  162.2091   31.3773 H   0  0  0  0  0  0  0  0  0  0  0  0
   52.3494  162.3851   29.8455 H   0  0  0  0  0  0  0  0  0  0  0  0
   50.7577  161.5527   29.8455 H   0  0  0  0  0  0  0  0  0  0  0  0
   53.2624  160.3319   30.0415 H   0  0  0  0  0  0  0  0  0  0  0  0
   52.6479  160.3695   31.7496 H   0  0  0  0  0  0  0  0  0  0  0  0
   53.0196  158.1812   29.2939 H   0  0  0  0  0  0  0  0  0  0  0  0
   53.2781  156.8830   25.0107 H   0  0  0  0  0  0  0  0  0  0  0  0
   54.3315  155.2622   23.4318 H   0  0  0  0  0  0  0  0  0  0  0  0
   54.4806  152.8435   24.0369 H   0  0  0  0  0  0  0  0  0  0  0  0
   53.0560  151.1660   25.7990 H   0  0  0  0  0  0  0  0  0  0  0  0
   51.8280  154.0880   30.9370 H   0  0  0  0  0  0  0  0  0  0  0  0
   49.2324  156.1350   29.5685 H   0  0  0  0  0  0  0  0  0  0  0  0
   48.3074  158.0250   30.8860 H   0  0  0  0  0  0  0  0  0  0  0  0
   48.5138  161.0402   29.9709 H   0  0  0  0  0  0  0  0  0  0  0  0
   47.5582  160.1214   31.1765 H   0  0  0  0  0  0  0  0  0  0  0  0
   48.8537  162.8744   31.5687 H   0  0  0  0  0  0  0  0  0  0  0  0
   47.0881  162.5090   31.4240 H   0  0  0  0  0  0  0  0  0  0  0  0
   47.8575  162.8874   33.7882 H   0  0  0  0  0  0  0  0  0  0  0  0
   47.1131  161.2670   33.4963 H   0  0  0  0  0  0  0  0  0  0  0  0
   50.0891  161.9249   33.7080 H   0  0  0  0  0  0  0  0  0  0  0  0
   49.0792  160.9658   34.8639 H   0  0  0  0  0  0  0  0  0  0  0  0
   50.5028  159.5345   33.3667 H   0  0  0  0  0  0  0  0  0  0  0  0
   48.7459  159.2165   33.1989 H   0  0  0  0  0  0  0  0  0  0  0  0
  1  2  1  0
  2  3  1  0
  3  4  2  0
  4  5  1  0
  5  6  1  0
  6  7  1  0
  7  8  1  0
  8  9  2  0
  9 10  1  0
 10 11  2  0
 11 12  1  0
 12 13  1  0
 12 14  2  0
 14 15  1  0
 15 16  2  0
 15 17  1  0
 17 18  1  0
  5 19  2  0
 19 20  1  0
 20 21  2  0
 21 22  1  0
 22 23  1  0
 23 24  1  0
 24 25  1  0
 25 26  1  0
 26 27  1  0
 21  3  1  0
 27 22  1  0
 17  6  2  0
 14  8  1  0
  1 28  1  0
  1 29  1  0
  1 30  1  0
  2 31  1  0
  2 32  1  0
  4 33  1  0
  9 34  1  0
 10 35  1  0
 11 36  1  0
 13 37  1  0
 18 38  1  0
 19 39  1  0
 20 40  1  0
 23 41  1  0
 23 42  1  0
 24 43  1  0
 24 44  1  0
 25 45  1  0
 25 46  1  0
 26 47  1  0
 26 48  1  0
 27 49  1  0
 27 50  1  0
M  END
>  <meeko>  (1) 
{"is_sidechain": [false], "free_energy": -10.441, "intermolecular_energy": -12.882, "internal_energy": -0.005}

$$$$
cand_029_out
     RDKit          3D

 50 53  0  0  0  0  0  0  0  0999 V2000
   47.6870  158.8310   29.8320 C   0  0  0  0  0  0  0  0  0  0  0  0
   48.5960  157.9000   30.6210 C   0  0  0  0  0  0  0  0  0  0  0  0
   50.0190  157.9260   30.1090 C   0  0  0  0  0  0  0  0  0  0  0  0
   50.4910  156.8260   29.3650 C   0  0  0  0  0  0  0  0  0  0  0  0
   51.8070  156.7770   28.8810 C   0  0  0  0  0  0  0  0  0  0  0  0
   52.2530  155.6180   28.0800 C   0  0  0  0  0  0  0  0  0  0  0  0
   52.9170  155.9880   26.9160 O   0  0  0  0  0  0  0  0  0  0  0  0
   53.3840  155.0090   26.0770 C   0  0  0  0  0  0  0  0  0  0  0  0
   54.0550  155.4270   24.9280 C   0  0  0  0  0  0  0  0  0  0  0  0
   54.5540  154.4810   24.0300 C   0  0  0  0  0  0  0  0  0  0  0  0
   54.3820  153.1180   24.2810 C   0  0  0  0  0  0  0  0  0  0  0  0
   53.7120  152.7040   25.4300 C   0  0  0  0  0  0  0  0  0  0  0  0
   53.5780  151.3550   25.6140 O   0  0  0  0  0  0  0  0  0  0  0  0
   53.2130  153.6510   26.3280 C   0  0  0  0  0  0  0  0  0  0  0  0
   52.5020  153.2590   27.5470 C   0  0  0  0  0  0  0  0  0  0  0  0
   52.3060  152.0800   27.8340 O   0  0  0  0  0  0  0  0  0  0  0  0
   52.0190  154.3400   28.4360 C   0  0  0  0  0  0  0  0  0  0  0  0
   51.3380  153.9580   29.5770 O   0  0  0  0  0  0  0  0  0  0  0  0
   52.6480  157.8630   29.1410 C   0  0  0  0  0  0  0  0  0  0  0  0
   52.1940  158.9560   29.8850 C   0  0  0  0  0  0  0  0  0  0  0  0
   50.8840  159.0030   30.3850 C   0  0  0  0  0  0  0  0  0  0  0  0
   50.4100  160.1000   31.1360 N   0  0  0  0  0  0  0  0  0  0  0  0
   49.7440  159.7070   32.3880 C   0  0  0  0  0  0  0  0  0  0  0  0
   49.0580  160.9350   32.9910 C   0  0  0  0  0  0  0  0  0  0  0  0
   50.0530  162.0760   33.1980 C   0  0  0  0  0  0  0  0  0  0  0  0
   50.8020  162.3870   31.9030 C   0  0  0  0  0  0  0  0  0  0  0  0
   51.4450  161.1300   31.3160 C   0  0  0  0  0  0  0  0  0  0  0  0
   47.0923  159.4401   30.5287 H   0  0  0  0  0  0  0  0  0  0  0  0
   48.2984  159.4904   29.1985 H   0  0  0  0  0  0  0  0  0  0  0  0
   47.0132  158.2355   29.1985 H   0  0  0  0  0  0  0  0  0  0  0  0
   48.5929  158.2112   31.6760 H   0  0  0  0  0  0  0  0  0  0  0  0
   48.2132  156.8751   30.5062 H   0  0  0  0  0  0  0  0  0  0  0  0
   49.8115  155.9859   29.1589 H   0  0  0  0  0  0  0  0  0  0  0  0
   54.1910  156.5003   24.7294 H   0  0  0  0  0  0  0  0  0  0  0  0
   55.0833  154.8100   23.1236 H   0  0  0  0  0  0  0  0  0  0  0  0
   54.7746  152.3732   23.5731 H   0  0  0  0  0  0  0  0  0  0  0  0
   53.7660  150.9750   26.4500 H   0  0  0  0  0  0  0  0  0  0  0  0
   51.6680  154.1950   30.4210 H   0  0  0  0  0  0  0  0  0  0  0  0
   53.6784  157.8575   28.7559 H   0  0  0  0  0  0  0  0  0  0  0  0
   52.8771  159.7954   30.0822 H   0  0  0  0  0  0  0  0  0  0  0  0
   48.9937  158.9302   32.1791 H   0  0  0  0  0  0  0  0  0  0  0  0
   50.4860  159.3093   33.0960 H   0  0  0  0  0  0  0  0  0  0  0  0
   48.2619  161.2718   32.3107 H   0  0  0  0  0  0  0  0  0  0  0  0
   48.6390  160.6556   33.9690 H   0  0  0  0  0  0  0  0  0  0  0  0
   49.5083  162.9744   33.5238 H   0  0  0  0  0  0  0  0  0  0  0  0
   50.7832  161.7716   33.9623 H   0  0  0  0  0  0  0  0  0  0  0  0
   50.0940  162.8024   31.1707 H   0  0  0  0  0  0  0  0  0  0  0  0
   51.5989  163.1109   32.1287 H   0  0  0  0  0  0  0  0  0  0  0  0
   51.9003  161.3688   30.3435 H   0  0  0  0  0  0  0  0  0  0  0  0
   52.2235  160.7583   31.9985 H   0  0  0  0  0  0  0  0  0  0  0  0
  1  2  1  0
  2  3  1  0
  3  4  2  0
  4  5  1  0
  5  6  1  0
  6  7  1  0
  7  8  1  0
  8  9  2  0
  9 10  1  0
 10 11  2  0
 11 12  1  0
 12 13  1  0
 12 14  2  0
 14 15  1  0
 15 16  2  0
 15 17  1  0
 17 18  1  0
  5 19  2  0
 19 20  1  0
 20 21  2  0
 21 22  1  0
 22 23  1  0
 23 24  1  0
 24 25  1  0
 25 26  1  0
 26 27  1  0
 21  3  1  0
 27 22  1  0
 17  6  2  0
 14  8  1  0
  1 28  1  0
  1 29  1  0
  1 30  1  0
  2 31  1  0
  2 32  1  0
  4 33  1  0
  9 34  1  0
 10 35  1  0
 11 36  1  0
 13 37  1  0
 18 38  1  0
 19 39  1  0
 20 40  1  0
 23 41  1  0
 23 42  1  0
 24 43  1  0
 24 44  1  0
 25 45  1  0
 25 46  1  0
 26 47  1  0
 26 48  1  0
 27 49  1  0
 27 50  1  0
M  END
>  <meeko>  (2) 
{"is_sidechain": [false], "free_energy": -10.092, "intermolecular_energy": -13.021, "internal_energy": 0.565}

$$$$
cand_029_out
     RDKit          3D

 50 53  0  0  0  0  0  0  0  0999 V2000
   51.2080  153.4680   29.9360 C   0  0  0  0  0  0  0  0  0  0  0  0
   52.2230  153.6270   28.8140 C   0  0  0  0  0  0  0  0  0  0  0  0
   52.3530  155.0660   28.3660 C   0  0  0  0  0  0  0  0  0  0  0  0
   51.8170  156.0810   29.1820 C   0  0  0  0  0  0  0  0  0  0  0  0
   51.8830  157.4330   28.8130 C   0  0  0  0  0  0  0  0  0  0  0  0
   51.3340  158.4690   29.7140 C   0  0  0  0  0  0  0  0  0  0  0  0
   49.9910  158.2680   30.0130 O   0  0  0  0  0  0  0  0  0  0  0  0
   49.3530  159.1580   30.8390 C   0  0  0  0  0  0  0  0  0  0  0  0
   48.0100  158.9100   31.1230 C   0  0  0  0  0  0  0  0  0  0  0  0
   47.3020  159.7780   31.9550 C   0  0  0  0  0  0  0  0  0  0  0  0
   47.9360  160.8950   32.5030 C   0  0  0  0  0  0  0  0  0  0  0  0
   49.2780  161.1410   32.2180 C   0  0  0  0  0  0  0  0  0  0  0  0
   49.8360  162.2520   32.7880 O   0  0  0  0  0  0  0  0  0  0  0  0
   49.9850  160.2700   31.3860 C   0  0  0  0  0  0  0  0  0  0  0  0
   51.3960  160.4910   31.0610 C   0  0  0  0  0  0  0  0  0  0  0  0
   52.0210  161.4550   31.4990 O   0  0  0  0  0  0  0  0  0  0  0  0
   52.0570  159.5070   30.1740 C   0  0  0  0  0  0  0  0  0  0  0  0
   53.3850  159.7330   29.8630 O   0  0  0  0  0  0  0  0  0  0  0  0
   52.5140  157.7600   27.6100 C   0  0  0  0  0  0  0  0  0  0  0  0
   53.0430  156.7610   26.7860 C   0  0  0  0  0  0  0  0  0  0  0  0
   52.9650  155.4070   27.1430 C   0  0  0  0  0  0  0  0  0  0  0  0
   53.4950  154.3860   26.3240 N   0  0  0  0  0  0  0  0  0  0  0  0
   52.5130  153.3470   25.9750 C   0  0  0  0  0  0  0  0  0  0  0  0
   53.2430  152.1800   25.3060 C   0  0  0  0  0  0  0  0  0  0  0  0
   54.0410  152.6530   24.0930 C   0  0  0  0  0  0  0  0  0  0  0  0
   54.9740  153.8040   24.4670 C   0  0  0  0  0  0  0  0  0  0  0  0
   54.2130  154.9340   25.1620 C   0  0  0  0  0  0  0  0  0  0  0  0
   51.7190  153.5481   30.9068 H   0  0  0  0  0  0  0  0  0  0  0  0
   50.4465  154.2578   29.8562 H   0  0  0  0  0  0  0  0  0  0  0  0
   50.7245  152.4832   29.8562 H   0  0  0  0  0  0  0  0  0  0  0  0
   53.2030  153.2760   29.1695 H   0  0  0  0  0  0  0  0  0  0  0  0
   51.8751  153.0343   27.9551 H   0  0  0  0  0  0  0  0  0  0  0  0
   51.3348  155.8071   30.1320 H   0  0  0  0  0  0  0  0  0  0  0  0
   47.5094  158.0307   30.6913 H   0  0  0  0  0  0  0  0  0  0  0  0
   46.2431  159.5821   32.1795 H   0  0  0  0  0  0  0  0  0  0  0  0
   47.3774  161.5795   33.1583 H   0  0  0  0  0  0  0  0  0  0  0  0
   49.6300  162.4790   33.6730 H   0  0  0  0  0  0  0  0  0  0  0  0
   53.9360  160.1910   30.4680 H   0  0  0  0  0  0  0  0  0  0  0  0
   52.5957  158.8145   27.3076 H   0  0  0  0  0  0  0  0  0  0  0  0
   53.5292  157.0427   25.8404 H   0  0  0  0  0  0  0  0  0  0  0  0
   52.0094  152.9936   26.8869 H   0  0  0  0  0  0  0  0  0  0  0  0
   51.7615  153.7606   25.2864 H   0  0  0  0  0  0  0  0  0  0  0  0
   53.9309  151.7228   26.0325 H   0  0  0  0  0  0  0  0  0  0  0  0
   52.4949  151.4479   24.9679 H   0  0  0  0  0  0  0  0  0  0  0  0
   54.6401  151.8149   23.7073 H   0  0  0  0  0  0  0  0  0  0  0  0
   53.3365  153.0076   23.3263 H   0  0  0  0  0  0  0  0  0  0  0  0
   55.7536  153.4271   25.1453 H   0  0  0  0  0  0  0  0  0  0  0  0
   55.4201  154.2028   23.5440 H   0  0  0  0  0  0  0  0  0  0  0  0
   54.9227  155.7047   25.4972 H   0  0  0  0  0  0  0  0  0  0  0  0
   53.4950  155.3841   24.4606 H   0  0  0  0  0  0  0  0  0  0  0  0
  1  2  1  0
  2  3  1  0
  3  4  2  0
  4  5  1  0
  5  6  1  0
  6  7  1  0
  7  8  1  0
  8  9  2  0
  9 10  1  0
 10 11  2  0
 11 12  1  0
 12 13  1  0
 12 14  2  0
 14 15  1  0
 15 16  2  0
 15 17  1  0
 17 18  1  0
  5 19  2  0
 19 20  1  0
 20 21  2  0
 21 22  1  0
 22 23  1  0
 23 24  1  0
 24 25  1  0
 25 26  1  0
 26 27  1  0
 21  3  1  0
 27 22  1  0
 17  6  2  0
 14  8  1  0
  1 28  1  0
  1 29  1  0
  1 30  1  0
  2 31  1  0
  2 32  1  0
  4 33  1  0
  9 34  1  0
 10 35  1  0
 11 36  1  0
 13 37  1  0
 18 38  1  0
 19 39  1  0
 20 40  1  0
 23 41  1  0
 23 42  1  0
 24 43  1  0
 24 44  1  0
 25 45  1  0
 25 46  1  0
 26 47  1  0
 26 48  1  0
 27 49  1  0
 27 50  1  0
M  END
>  <meeko>  (3) 
{"is_sidechain": [false], "free_energy": -10.074, "intermolecular_energy": -12.483, "internal_energy": 0.049}

$$$$
cand_029_out
     RDKit          3D

 50 53  0  0  0  0  0  0  0  0999 V2000
   54.9090  157.0410   25.1180 C   0  0  0  0  0  0  0  0  0  0  0  0
   53.4050  156.8190   25.1660 C   0  0  0  0  0  0  0  0  0  0  0  0
   52.9340  156.4150   26.5450 C   0  0  0  0  0  0  0  0  0  0  0  0
   52.4190  157.4070   27.4030 C   0  0  0  0  0  0  0  0  0  0  0  0
   51.9870  157.1040   28.7030 C   0  0  0  0  0  0  0  0  0  0  0  0
   51.4260  158.1690   29.5600 C   0  0  0  0  0  0  0  0  0  0  0  0
   50.0820  157.9740   29.8550 O   0  0  0  0  0  0  0  0  0  0  0  0
   49.4340  158.8910   30.6420 C   0  0  0  0  0  0  0  0  0  0  0  0
   48.0890  158.6480   30.9230 C   0  0  0  0  0  0  0  0  0  0  0  0
   47.3700  159.5430   31.7170 C   0  0  0  0  0  0  0  0  0  0  0  0
   47.9950  160.6820   32.2290 C   0  0  0  0  0  0  0  0  0  0  0  0
   49.3380  160.9220   31.9470 C   0  0  0  0  0  0  0  0  0  0  0  0
   49.8870  162.0570   32.4800 O   0  0  0  0  0  0  0  0  0  0  0  0
   50.0570  160.0250   31.1530 C   0  0  0  0  0  0  0  0  0  0  0  0
   51.4690  160.2400   30.8320 C   0  0  0  0  0  0  0  0  0  0  0  0
   52.0870  161.2220   31.2400 O   0  0  0  0  0  0  0  0  0  0  0  0
   52.1420  159.2260   29.9880 C   0  0  0  0  0  0  0  0  0  0  0  0
   53.4720  159.4470   29.6800 O   0  0  0  0  0  0  0  0  0  0  0  0
   52.0650  155.7750   29.1320 C   0  0  0  0  0  0  0  0  0  0  0  0
   52.5820  154.7830   28.2940 C   0  0  0  0  0  0  0  0  0  0  0  0
   53.0300  155.0840   26.9990 C   0  0  0  0  0  0  0  0  0  0  0  0
   53.5530  154.0940   26.1390 N   0  0  0  0  0  0  0  0  0  0  0  0
   53.4680  152.7340   26.6930 C   0  0  0  0  0  0  0  0  0  0  0  0
   54.2760  151.7860   25.8060 C   0  0  0  0  0  0  0  0  0  0  0  0
   53.8010  151.8500   24.3550 C   0  0  0  0  0  0  0  0  0  0  0  0
   53.8020  153.2910   23.8450 C   0  0  0  0  0  0  0  0  0  0  0  0
   53.0120  154.2120   24.7760 C   0  0  0  0  0  0  0  0  0  0  0  0
   55.3039  157.0993   26.1430 H   0  0  0  0  0  0  0  0  0  0  0  0
   55.3865  156.2036   24.5881 H   0  0  0  0  0  0  0  0  0  0  0  0
   55.1242  157.9806   24.5881 H   0  0  0  0  0  0  0  0  0  0  0  0
   52.8992  157.7523   24.8776 H   0  0  0  0  0  0  0  0  0  0  0  0
   53.1606  156.0018   24.4714 H   0  0  0  0  0  0  0  0  0  0  0  0
   52.3540  158.4449   27.0446 H   0  0  0  0  0  0  0  0  0  0  0  0
   47.5956  157.7517   30.5191 H   0  0  0  0  0  0  0  0  0  0  0  0
   46.3100  159.3509   31.9396 H   0  0  0  0  0  0  0  0  0  0  0  0
   47.4282  161.3881   32.8536 H   0  0  0  0  0  0  0  0  0  0  0  0
   49.6120  162.3590   33.3230 H   0  0  0  0  0  0  0  0  0  0  0  0
   53.8890  160.2410   29.9520 H   0  0  0  0  0  0  0  0  0  0  0  0
   51.7156  155.5075   30.1401 H   0  0  0  0  0  0  0  0  0  0  0  0
   52.6387  153.7461   28.6569 H   0  0  0  0  0  0  0  0  0  0  0  0
   53.8786  152.7247   27.7134 H   0  0  0  0  0  0  0  0  0  0  0  0
   52.4174  152.4097   26.7248 H   0  0  0  0  0  0  0  0  0  0  0  0
   55.3375  152.0711   25.8493 H   0  0  0  0  0  0  0  0  0  0  0  0
   54.1357  150.7590   26.1742 H   0  0  0  0  0  0  0  0  0  0  0  0
   54.4736  151.2456   23.7286 H   0  0  0  0  0  0  0  0  0  0  0  0
   52.7741  151.4591   24.3033 H   0  0  0  0  0  0  0  0  0  0  0  0
   54.8405  153.6486   23.7842 H   0  0  0  0  0  0  0  0  0  0  0  0
   53.3251  153.3082   22.8539 H   0  0  0  0  0  0  0  0  0  0  0  0
   53.1048  155.2525   24.4312 H   0  0  0  0  0  0  0  0  0  0  0  0
   51.9506  153.9233   24.7713 H   0  0  0  0  0  0  0  0  0  0  0  0
  1  2  1  0
  2  3  1  0
  3  4  2  0
  4  5  1  0
  5  6  1  0
  6  7  1  0
  7  8  1  0
  8  9  2  0
  9 10  1  0
 10 11  2  0
 11 12  1  0
 12 13  1  0
 12 14  2  0
 14 15  1  0
 15 16  2  0
 15 17  1  0
 17 18  1  0
  5 19  2  0
 19 20  1  0
 20 21  2  0
 21 22  1  0
 22 23  1  0
 23 24  1  0
 24 25  1  0
 25 26  1  0
 26 27  1  0
 21  3  1  0
 27 22  1  0
 17  6  2  0
 14  8  1  0
  1 28  1  0
  1 29  1  0
  1 30  1  0
  2 31  1  0
  2 32  1  0
  4 33  1  0
  9 34  1  0
 10 35  1  0
 11 36  1  0
 13 37  1  0
 18 38  1  0
 19 39  1  0
 20 40  1  0
 23 41  1  0
 23 42  1  0
 24 43  1  0
 24 44  1  0
 25 45  1  0
 25 46  1  0
 26 47  1  0
 26 48  1  0
 27 49  1  0
 27 50  1  0
M  END
>  <meeko>  (4) 
{"is_sidechain": [false], "free_energy": -9.871, "intermolecular_energy": -12.647, "internal_energy": 0.464}

$$$$
cand_029_out
     RDKit          3D

 50 53  0  0  0  0  0  0  0  0999 V2000
   54.8670  157.0170   25.1350 C   0  0  0  0  0  0  0  0  0  0  0  0
   53.3930  156.6460   25.0790 C   0  0  0  0  0  0  0  0  0  0  0  0
   52.8870  156.1280   26.4080 C   0  0  0  0  0  0  0  0  0  0  0  0
   52.2430  157.0240   27.2840 C   0  0  0  0  0  0  0  0  0  0  0  0
   51.7720  156.6130   28.5400 C   0  0  0  0  0  0  0  0  0  0  0  0
   51.0750  157.5790   29.4150 C   0  0  0  0  0  0  0  0  0  0  0  0
   51.8470  158.6960   29.7120 O   0  0  0  0  0  0  0  0  0  0  0  0
   51.3220  159.6730   30.5180 C   0  0  0  0  0  0  0  0  0  0  0  0
   52.1290  160.7810   30.7790 C   0  0  0  0  0  0  0  0  0  0  0  0
   51.6550  161.8100   31.5940 C   0  0  0  0  0  0  0  0  0  0  0  0
   50.3760  161.7320   32.1500 C   0  0  0  0  0  0  0  0  0  0  0  0
   49.5730  160.6240   31.8880 C   0  0  0  0  0  0  0  0  0  0  0  0
   48.3320  160.6110   32.4640 O   0  0  0  0  0  0  0  0  0  0  0  0
   50.0480  159.5950   31.0710 C   0  0  0  0  0  0  0  0  0  0  0  0
   49.2370  158.4130   30.7710 C   0  0  0  0  0  0  0  0  0  0  0  0
   48.1050  158.2680   31.2270 O   0  0  0  0  0  0  0  0  0  0  0  0
   49.8300  157.3810   29.8900 C   0  0  0  0  0  0  0  0  0  0  0  0
   49.0600  156.2630   29.6240 O   0  0  0  0  0  0  0  0  0  0  0  0
   51.9430  155.2750   28.9040 C   0  0  0  0  0  0  0  0  0  0  0  0
   52.5890  154.3780   28.0480 C   0  0  0  0  0  0  0  0  0  0  0  0
   53.0760  154.7870   26.7980 C   0  0  0  0  0  0  0  0  0  0  0  0
   53.7290  153.8940   25.9210 N   0  0  0  0  0  0  0  0  0  0  0  0
   53.8210  152.5230   26.4450 C   0  0  0  0  0  0  0  0  0  0  0  0
   54.7510  151.7090   25.5430 C   0  0  0  0  0  0  0  0  0  0  0  0
   54.2780  151.7430   24.0910 C   0  0  0  0  0  0  0  0  0  0  0  0
   54.0910  153.1820   23.6120 C   0  0  0  0  0  0  0  0  0  0  0  0
   53.1830  153.9700   24.5570 C   0  0  0  0  0  0  0  0  0  0  0  0
   55.1853  157.0971   26.1849 H   0  0  0  0  0  0  0  0  0  0  0  0
   55.4601  156.2401   24.6303 H   0  0  0  0  0  0  0  0  0  0  0  0
   55.0216  157.9821   24.6303 H   0  0  0  0  0  0  0  0  0  0  0  0
   52.8126  157.5383   24.8016 H   0  0  0  0  0  0  0  0  0  0  0  0
   53.2726  155.8452   24.3345 H   0  0  0  0  0  0  0  0  0  0  0  0
   52.1062  158.0710   26.9758 H   0  0  0  0  0  0  0  0  0  0  0  0
   53.1370  160.8433   30.3431 H   0  0  0  0  0  0  0  0  0  0  0  0
   52.2901  162.6845   31.7990 H   0  0  0  0  0  0  0  0  0  0  0  0
   50.0038  162.5432   32.7930 H   0  0  0  0  0  0  0  0  0  0  0  0
   48.0460  161.3410   32.9770 H   0  0  0  0  0  0  0  0  0  0  0  0
   48.4360  155.9640   30.2560 H   0  0  0  0  0  0  0  0  0  0  0  0
   51.5650  154.9232   29.8753 H   0  0  0  0  0  0  0  0  0  0  0  0
   52.7178  153.3313   28.3609 H   0  0  0  0  0  0  0  0  0  0  0  0
   54.2249  152.5450   27.4679 H   0  0  0  0  0  0  0  0  0  0  0  0
   52.8220  152.0629   26.4624 H   0  0  0  0  0  0  0  0  0  0  0  0
   55.7657  152.1299   25.6001 H   0  0  0  0  0  0  0  0  0  0  0  0
   54.7455  150.6644   25.8877 H   0  0  0  0  0  0  0  0  0  0  0  0
   55.0270  151.2467   23.4565 H   0  0  0  0  0  0  0  0  0  0  0  0
   53.3116  151.2218   24.0239 H   0  0  0  0  0  0  0  0  0  0  0  0
   55.0735  153.6746   23.5658 H   0  0  0  0  0  0  0  0  0  0  0  0
   53.6198  153.1581   22.6183 H   0  0  0  0  0  0  0  0  0  0  0  0
   53.1394  155.0210   24.2353 H   0  0  0  0  0  0  0  0  0  0  0  0
   52.1689  153.5442   24.5386 H   0  0  0  0  0  0  0  0  0  0  0  0
  1  2  1  0
  2  3  1  0
  3  4  2  0
  4  5  1  0
  5  6  1  0
  6  7  1  0
  7  8  1  0
  8  9  2  0
  9 10  1  0
 10 11  2  0
 11 12  1  0
 12 13  1  0
 12 14  2  0
 14 15  1  0
 15 16  2  0
 15 17  1  0
 17 18  1  0
  5 19  2  0
 19 20  1  0
 20 21  2  0
 21 22  1  0
 22 23  1  0
 23 24  1  0
 24 25  1  0
 25 26  1  0
 26 27  1  0
 21  3  1  0
 27 22  1  0
 17  6  2  0
 14  8  1  0
  1 28  1  0
  1 29  1  0
  1 30  1  0
  2 31  1  0
  2 32  1  0
  4 33  1  0
  9 34  1  0
 10 35  1  0
 11 36  1  0
 13 37  1  0
 18 38  1  0
 19 39  1  0
 20 40  1  0
 23 41  1  0
 23 42  1  0
 24 43  1  0
 24 44  1  0
 25 45  1  0
 25 46  1  0
 26 47  1  0
 26 48  1  0
 27 49  1  0
 27 50  1  0
M  END
>  <meeko>  (5) 
{"is_sidechain": [false], "free_energy": -8.993, "intermolecular_energy": -11.443, "internal_energy": 0.342}

$$$$
cand_029_out
     RDKit          3D

 50 53  0  0  0  0  0  0  0  0999 V2000
   51.9620  152.6720   28.9780 C   0  0  0  0  0  0  0  0  0  0  0  0
   51.5570  153.4000   27.7050 C   0  0  0  0  0  0  0  0  0  0  0  0
   51.9600  154.8580   27.7320 C   0  0  0  0  0  0  0  0  0  0  0  0
   51.2850  155.7320   28.6060 C   0  0  0  0  0  0  0  0  0  0  0  0
   51.5940  157.0990   28.6640 C   0  0  0  0  0  0  0  0  0  0  0  0
   50.8810  157.9750   29.6160 C   0  0  0  0  0  0  0  0  0  0  0  0
   51.6340  159.0780   30.0040 O   0  0  0  0  0  0  0  0  0  0  0  0
   51.0930  159.9750   30.8890 C   0  0  0  0  0  0  0  0  0  0  0  0
   51.8790  161.0720   31.2410 C   0  0  0  0  0  0  0  0  0  0  0  0
   51.3880  162.0220   32.1390 C   0  0  0  0  0  0  0  0  0  0  0  0
   50.1120  161.8740   32.6860 C   0  0  0  0  0  0  0  0  0  0  0  0
   49.3290  160.7780   32.3330 C   0  0  0  0  0  0  0  0  0  0  0  0
   48.0890  160.6950   32.9060 O   0  0  0  0  0  0  0  0  0  0  0  0
   49.8210  159.8280   31.4340 C   0  0  0  0  0  0  0  0  0  0  0  0
   49.0310  158.6610   31.0370 C   0  0  0  0  0  0  0  0  0  0  0  0
   47.9020  158.4580   31.4800 O   0  0  0  0  0  0  0  0  0  0  0  0
   49.6410  157.7160   30.0730 C   0  0  0  0  0  0  0  0  0  0  0  0
   48.8910  156.6110   29.7160 O   0  0  0  0  0  0  0  0  0  0  0  0
   52.6110  157.5810   27.8350 C   0  0  0  0  0  0  0  0  0  0  0  0
   53.2830  156.7270   26.9570 C   0  0  0  0  0  0  0  0  0  0  0  0
   52.9660  155.3620   26.8840 C   0  0  0  0  0  0  0  0  0  0  0  0
   53.6360  154.4850   26.0040 N   0  0  0  0  0  0  0  0  0  0  0  0
   52.7900  153.3820   25.5200 C   0  0  0  0  0  0  0  0  0  0  0  0
   53.6690  152.3680   24.7860 C   0  0  0  0  0  0  0  0  0  0  0  0
   54.4540  153.0340   23.6570 C   0  0  0  0  0  0  0  0  0  0  0  0
   55.2390  154.2390   24.1750 C   0  0  0  0  0  0  0  0  0  0  0  0
   54.3320  155.2110   24.9300 C   0  0  0  0  0  0  0  0  0  0  0  0
   51.6377  153.2549   29.8527 H   0  0  0  0  0  0  0  0  0  0  0  0
   51.4857  151.6807   29.0009 H   0  0  0  0  0  0  0  0  0  0  0  0
   53.0554  152.5540   29.0009 H   0  0  0  0  0  0  0  0  0  0  0  0
   52.0440  152.9130   26.8473 H   0  0  0  0  0  0  0  0  0  0  0  0
   50.4613  153.3523   27.6208 H   0  0  0  0  0  0  0  0  0  0  0  0
   50.4956  155.3326   29.2596 H   0  0  0  0  0  0  0  0  0  0  0  0
   52.8850  161.1888   30.8116 H   0  0  0  0  0  0  0  0  0  0  0  0
   52.0073  162.8880   32.4157 H   0  0  0  0  0  0  0  0  0  0  0  0
   49.7260  162.6217   33.3944 H   0  0  0  0  0  0  0  0  0  0  0  0
   47.8520  159.9370   33.4040 H   0  0  0  0  0  0  0  0  0  0  0  0
   49.3200  155.8140   29.4720 H   0  0  0  0  0  0  0  0  0  0  0  0
   52.8855  158.6455   27.8744 H   0  0  0  0  0  0  0  0  0  0  0  0
   54.0755  157.1323   26.3107 H   0  0  0  0  0  0  0  0  0  0  0  0
   52.2965  152.8935   26.3731 H   0  0  0  0  0  0  0  0  0  0  0  0
   52.0226  153.7737   24.8361 H   0  0  0  0  0  0  0  0  0  0  0  0
   54.3764  151.9223   25.5008 H   0  0  0  0  0  0  0  0  0  0  0  0
   53.0197  151.5944   24.3502 H   0  0  0  0  0  0  0  0  0  0  0  0
   55.1563  152.3043   23.2276 H   0  0  0  0  0  0  0  0  0  0  0  0
   53.7436  153.3801   22.8918 H   0  0  0  0  0  0  0  0  0  0  0  0
   56.0298  153.8865   24.8535 H   0  0  0  0  0  0  0  0  0  0  0  0
   55.6723  154.7673   23.3129 H   0  0  0  0  0  0  0  0  0  0  0  0
   54.9389  156.0189   25.3648 H   0  0  0  0  0  0  0  0  0  0  0  0
   53.5951  155.6439   24.2375 H   0  0  0  0  0  0  0  0  0  0  0  0
  1  2  1  0
  2  3  1  0
  3  4  2  0
  4  5  1  0
  5  6  1  0
  6  7  1  0
  7  8  1  0
  8  9  2  0
  9 10  1  0
 10 11  2  0
 11 12  1  0
 12 13  1  0
 12 14  2  0
 14 15  1  0
 15 16  2  0
 15 17  1  0
 17 18  1  0
  5 19  2  0
 19 20  1  0
 20 21  2  0
 21 22  1  0
 22 23  1  0
 23 24  1  0
 24 25  1  0
 25 26  1  0
 26 27  1  0
 21  3  1  0
 27 22  1  0
 17  6  2  0
 14  8  1  0
  1 28  1  0
  1 29  1  0
  1 30  1  0
  2 31  1  0
  2 32  1  0
  4 33  1  0
  9 34  1  0
 10 35  1  0
 11 36  1  0
 13 37  1  0
 18 38  1  0
 19 39  1  0
 20 40  1  0
 23 41  1  0
 23 42  1  0
 24 43  1  0
 24 44  1  0
 25 45  1  0
 25 46  1  0
 26 47  1  0
 26 48  1  0
 27 49  1  0
 27 50  1  0
M  END
>  <meeko>  (6) 
{"is_sidechain": [false], "free_energy": -8.42, "intermolecular_energy": -11.445, "internal_energy": 1.052}

$$$$
