cand_052_out
     RDKit          3D

 44 46  0  0  0  0  0  0  0  0999 V2000
   48.1570  161.6170   33.0630 C   0  0  0  0  0  0  0  0  0  0  0  0
   49.3960  160.9790   33.6720 C   0  0  0  0  0  0  0  0  0  0  0  0
   50.5910  161.0560   32.7200 C   0  0  0  0  0  0  0  0  0  0  0  0
   50.1390  161.0050   31.2580 C   0  0  0  0  0  0  0  0  0  0  0  0
   50.5820  159.7270   30.5790 C   0  0  0  0  0  0  0  0  0  0  0  0
   51.8970  159.6480   30.0950 C   0  0  0  0  0  0  0  0  0  0  0  0
   52.3610  158.4990   29.4520 C   0  0  0  0  0  0  0  0  0  0  0  0
   51.5250  157.3920   29.2780 C   0  0  0  0  0  0  0  0  0  0  0  0
   51.9820  156.1720   28.5800 C   0  0  0  0  0  0  0  0  0  0  0  0
   52.5110  156.4370   27.3210 O   0  0  0  0  0  0  0  0  0  0  0  0
   52.9750  155.3920   26.5630 C   0  0  0  0  0  0  0  0  0  0  0  0
   53.5090  155.7050   25.3140 C   0  0  0  0  0  0  0  0  0  0  0  0
   53.9980  154.6880   24.4900 C   0  0  0  0  0  0  0  0  0  0  0  0
   53.9510  153.3590   24.9170 C   0  0  0  0  0  0  0  0  0  0  0  0
   53.4170  153.0500   26.1650 C   0  0  0  0  0  0  0  0  0  0  0  0
   53.4010  151.7290   26.5200 O   0  0  0  0  0  0  0  0  0  0  0  0
   52.9290  154.0680   26.9880 C   0  0  0  0  0  0  0  0  0  0  0  0
   52.3600  153.7870   28.3070 C   0  0  0  0  0  0  0  0  0  0  0  0
   52.2780  152.6420   28.7500 O   0  0  0  0  0  0  0  0  0  0  0  0
   51.8770  154.9380   29.1050 C   0  0  0  0  0  0  0  0  0  0  0  0
   51.3290  154.6590   30.3440 O   0  0  0  0  0  0  0  0  0  0  0  0
   50.2060  157.4760   29.7490 C   0  0  0  0  0  0  0  0  0  0  0  0
   49.7190  158.6290   30.3930 C   0  0  0  0  0  0  0  0  0  0  0  0
   48.2980  158.6400   30.8870 C   0  0  0  0  0  0  0  0  0  0  0  0
   47.4891  161.9609   33.8665 H   0  0  0  0  0  0  0  0  0  0  0  0
   48.4541  162.4743   32.4410 H   0  0  0  0  0  0  0  0  0  0  0  0
   47.6317  160.8773   32.4410 H   0  0  0  0  0  0  0  0  0  0  0  0
   49.6474  161.5052   34.6047 H   0  0  0  0  0  0  0  0  0  0  0  0
   49.1779  159.9187   33.8675 H   0  0  0  0  0  0  0  0  0  0  0  0
   51.1298  161.9987   32.8962 H   0  0  0  0  0  0  0  0  0  0  0  0
   51.2455  160.1931   32.9123 H   0  0  0  0  0  0  0  0  0  0  0  0
   49.0413  161.0657   31.2220 H   0  0  0  0  0  0  0  0  0  0  0  0
   50.5984  161.8520   30.7275 H   0  0  0  0  0  0  0  0  0  0  0  0
   52.5734  160.5058   30.2245 H   0  0  0  0  0  0  0  0  0  0  0  0
   53.3950  158.4643   29.0784 H   0  0  0  0  0  0  0  0  0  0  0  0
   53.5454  156.7516   24.9774 H   0  0  0  0  0  0  0  0  0  0  0  0
   54.4202  154.9342   23.5045 H   0  0  0  0  0  0  0  0  0  0  0  0
   54.3352  152.5579   24.2684 H   0  0  0  0  0  0  0  0  0  0  0  0
   54.2060  151.2740   26.6690 H   0  0  0  0  0  0  0  0  0  0  0  0
   51.7950  154.1190   30.9510 H   0  0  0  0  0  0  0  0  0  0  0  0
   49.5335  156.6165   29.6111 H   0  0  0  0  0  0  0  0  0  0  0  0
   48.2922  158.6400   31.9870 H   0  0  0  0  0  0  0  0  0  0  0  0
   47.7884  159.5421   30.5176 H   0  0  0  0  0  0  0  0  0  0  0  0
   47.7745  157.7459   30.5176 H   0  0  0  0  0  0  0  0  0  0  0  0
  1  2  1  0
  2  3  1  0
  3  4  1  0
  4  5  1  0
  5  6  2  0
  6  7  1  0
  7  8  2  0
  8  9  1  0
  9 10  1  0
 10 11  1  0
 11 12  2  0
 12 13  1  0
 13 14  2  0
 14 15  1  0
 15 16  1  0
 15 17  2  0
 17 18  1  0
 18 19  2  0
 18 20  1  0
 20 21  1  0
  8 22  1  0
 22 23  2  0
 23 24  1  0
 23  5  1  0
 20  9  2  0
 17 11  1  0
  1 25  1  0
  1 26  1  0
  1 27  1  0
  2 28  1  0
  2 29  1  0
  3 30  1  0
  3 31  1  0
  4 32  1  0
  4 33  1  0
  6 34  1  0
  7 35  1  0
 12 36  1  0
 13 37  1  0
 14 38  1  0
 16 39  1  0
 21 40  1  0
 22 41  1  0
 24 42  1  0
 24 43  1  0
 24 44  1  0
M  END
>  <meeko>  (1) 
{"is_sidechain": [false], "free_energy": -10.495, "intermolecular_energy": -13.563, "internal_energy": -0.628}

$$$$
cand_052_out
     RDKit          3D

 44 46  0  0  0  0  0  0  0  0999 V2000
   48.4760  162.3990   32.8510 C   0  0  0  0  0  0  0  0  0  0  0  0
   49.0170  161.3200   33.7750 C   0  0  0  0  0  0  0  0  0  0  0  0
   49.3160  160.0280   33.0140 C   0  0  0  0  0  0  0  0  0  0  0  0
   49.1000  160.2090   31.5090 C   0  0  0  0  0  0  0  0  0  0  0  0
   49.8620  159.1770   30.7050 C   0  0  0  0  0  0  0  0  0  0  0  0
   49.2420  157.9460   30.4400 C   0  0  0  0  0  0  0  0  0  0  0  0
   49.8980  156.9510   29.7120 C   0  0  0  0  0  0  0  0  0  0  0  0
   51.1900  157.1600   29.2230 C   0  0  0  0  0  0  0  0  0  0  0  0
   51.9160  156.1160   28.4690 C   0  0  0  0  0  0  0  0  0  0  0  0
   52.4320  156.5810   27.2640 O   0  0  0  0  0  0  0  0  0  0  0  0
   53.1310  155.7160   26.4630 C   0  0  0  0  0  0  0  0  0  0  0  0
   53.6420  156.2280   25.2710 C   0  0  0  0  0  0  0  0  0  0  0  0
   54.3630  155.3990   24.4070 C   0  0  0  0  0  0  0  0  0  0  0  0
   54.5700  154.0580   24.7370 C   0  0  0  0  0  0  0  0  0  0  0  0
   54.0580  153.5490   25.9280 C   0  0  0  0  0  0  0  0  0  0  0  0
   54.2980  152.2270   26.1870 O   0  0  0  0  0  0  0  0  0  0  0  0
   53.3380  154.3790   26.7910 C   0  0  0  0  0  0  0  0  0  0  0  0
   52.7840  153.8840   28.0510 C   0  0  0  0  0  0  0  0  0  0  0  0
   52.9180  152.7150   28.4080 O   0  0  0  0  0  0  0  0  0  0  0  0
   52.0430  154.8480   28.8990 C   0  0  0  0  0  0  0  0  0  0  0  0
   51.5110  154.3660   30.0810 O   0  0  0  0  0  0  0  0  0  0  0  0
   51.8160  158.3850   29.5000 C   0  0  0  0  0  0  0  0  0  0  0  0
   51.1730  159.3960   30.2390 C   0  0  0  0  0  0  0  0  0  0  0  0
   51.8990  160.6910   30.4830 C   0  0  0  0  0  0  0  0  0  0  0  0
   48.0630  163.2228   33.4516 H   0  0  0  0  0  0  0  0  0  0  0  0
   49.2897  162.7801   32.2164 H   0  0  0  0  0  0  0  0  0  0  0  0
   47.6839  161.9749   32.2164 H   0  0  0  0  0  0  0  0  0  0  0  0
   49.9445  161.6821   34.2426 H   0  0  0  0  0  0  0  0  0  0  0  0
   48.2531  161.1030   34.5362 H   0  0  0  0  0  0  0  0  0  0  0  0
   50.3621  159.7394   33.1942 H   0  0  0  0  0  0  0  0  0  0  0  0
   48.6305  159.2460   33.3726 H   0  0  0  0  0  0  0  0  0  0  0  0
   48.0268  160.1109   31.2887 H   0  0  0  0  0  0  0  0  0  0  0  0
   49.4713  161.2053   31.2270 H   0  0  0  0  0  0  0  0  0  0  0  0
   48.2232  157.7620   30.8117 H   0  0  0  0  0  0  0  0  0  0  0  0
   49.3923  155.9929   29.5216 H   0  0  0  0  0  0  0  0  0  0  0  0
   53.4777  157.2840   25.0107 H   0  0  0  0  0  0  0  0  0  0  0  0
   54.7674  155.8029   23.4671 H   0  0  0  0  0  0  0  0  0  0  0  0
   55.1366  153.4046   24.0573 H   0  0  0  0  0  0  0  0  0  0  0  0
   53.6300  151.6980   26.5770 H   0  0  0  0  0  0  0  0  0  0  0  0
   51.9850  153.7330   30.5840 H   0  0  0  0  0  0  0  0  0  0  0  0
   52.8369  158.5600   29.1296 H   0  0  0  0  0  0  0  0  0  0  0  0
   51.9937  160.8599   31.5658 H   0  0  0  0  0  0  0  0  0  0  0  0
   52.9005  160.6407   30.0308 H   0  0  0  0  0  0  0  0  0  0  0  0
   51.3336  161.5192   30.0308 H   0  0  0  0  0  0  0  0  0  0  0  0
  1  2  1  0
  2  3  1  0
  3  4  1  0
  4  5  1  0
  5  6  2  0
  6  7  1  0
  7  8  2  0
  8  9  1  0
  9 10  1  0
 10 11  1  0
 11 12  2  0
 12 13  1  0
 13 14  2  0
 14 15  1  0
 15 16  1  0
 15 17  2  0
 17 18  1  0
 18 19  2  0
 18 20  1  0
 20 21  1  0
  8 22  1  0
 22 23  2  0
 23 24  1  0
 23  5  1  0
 20  9  2  0
 17 11  1  0
  1 25  1  0
  1 26  1  0
  1 27  1  0
  2 28  1  0
  2 29  1  0
  3 30  1  0
  3 31  1  0
  4 32  1  0
  4 33  1  0
  6 34  1  0
  7 35  1  0
 12 36  1  0
 13 37  1  0
 14 38  1  0
 16 39  1  0
 21 40  1  0
 22 41  1  0
 24 42  1  0
 24 43  1  0
 24 44  1  0
M  END
>  <meeko>  (2) 
{"is_sidechain": [false], "free_energy": -10.23, "intermolecular_energy": -13.386, "internal_energy": -0.462}

$$$$
cand_052_out
     RDKit          3D

 44 46  0  0  0  0  0  0  0  0999 V2000
   54.1390  149.9040   24.7450 C   0  0  0  0  0  0  0  0  0  0  0  0
   54.1860  151.4100   24.5400 C   0  0  0  0  0  0  0  0  0  0  0  0
   54.0830  152.1600   25.8690 C   0  0  0  0  0  0  0  0  0  0  0  0
   52.6280  152.2590   26.3380 C   0  0  0  0  0  0  0  0  0  0  0  0
   52.3600  153.5610   27.0610 C   0  0  0  0  0  0  0  0  0  0  0  0
   51.9140  153.5070   28.3910 C   0  0  0  0  0  0  0  0  0  0  0  0
   51.6420  154.6740   29.1080 C   0  0  0  0  0  0  0  0  0  0  0  0
   51.8120  155.9290   28.5180 C   0  0  0  0  0  0  0  0  0  0  0  0
   51.5080  157.1800   29.2460 C   0  0  0  0  0  0  0  0  0  0  0  0
   50.2010  157.2260   29.7170 O   0  0  0  0  0  0  0  0  0  0  0  0
   49.7840  158.3320   30.4130 C   0  0  0  0  0  0  0  0  0  0  0  0
   48.4700  158.3300   30.8780 C   0  0  0  0  0  0  0  0  0  0  0  0
   47.9810  159.4270   31.5930 C   0  0  0  0  0  0  0  0  0  0  0  0
   48.8080  160.5250   31.8400 C   0  0  0  0  0  0  0  0  0  0  0  0
   50.1200  160.5240   31.3730 C   0  0  0  0  0  0  0  0  0  0  0  0
   50.8740  161.6320   31.6500 O   0  0  0  0  0  0  0  0  0  0  0  0
   50.6080  159.4260   30.6590 C   0  0  0  0  0  0  0  0  0  0  0  0
   51.9800  159.3850   30.1520 C   0  0  0  0  0  0  0  0  0  0  0  0
   52.7660  160.3160   30.3240 O   0  0  0  0  0  0  0  0  0  0  0  0
   52.4020  158.1710   29.4140 C   0  0  0  0  0  0  0  0  0  0  0  0
   53.6960  158.1500   28.9280 O   0  0  0  0  0  0  0  0  0  0  0  0
   52.2440  155.9840   27.1840 C   0  0  0  0  0  0  0  0  0  0  0  0
   52.5160  154.8180   26.4440 C   0  0  0  0  0  0  0  0  0  0  0  0
   52.9930  154.9540   25.0240 C   0  0  0  0  0  0  0  0  0  0  0  0
   54.1320  149.6806   25.8221 H   0  0  0  0  0  0  0  0  0  0  0  0
   53.2278  149.4990   24.2806 H   0  0  0  0  0  0  0  0  0  0  0  0
   55.0232  149.4430   24.2806 H   0  0  0  0  0  0  0  0  0  0  0  0
   55.1359  151.6749   24.0527 H   0  0  0  0  0  0  0  0  0  0  0  0
   53.3300  151.6999   23.9128 H   0  0  0  0  0  0  0  0  0  0  0  0
   54.6695  151.6241   26.6298 H   0  0  0  0  0  0  0  0  0  0  0  0
   54.4727  153.1786   25.7252 H   0  0  0  0  0  0  0  0  0  0  0  0
   51.9660  152.1950   25.4619 H   0  0  0  0  0  0  0  0  0  0  0  0
   52.4366  151.4325   27.0381 H   0  0  0  0  0  0  0  0  0  0  0  0
   51.7766  152.5294   28.8763 H   0  0  0  0  0  0  0  0  0  0  0  0
   51.2903  154.6045   30.1479 H   0  0  0  0  0  0  0  0  0  0  0  0
   47.8183  157.4657   30.6824 H   0  0  0  0  0  0  0  0  0  0  0  0
   46.9445  159.4255   31.9613 H   0  0  0  0  0  0  0  0  0  0  0  0
   48.4238  161.3888   32.4023 H   0  0  0  0  0  0  0  0  0  0  0  0
   51.7860  161.6430   31.4380 H   0  0  0  0  0  0  0  0  0  0  0  0
   54.3800  157.7600   29.4360 H   0  0  0  0  0  0  0  0  0  0  0  0
   52.3736  156.9650   26.7036 H   0  0  0  0  0  0  0  0  0  0  0  0
   54.0508  155.2556   25.0198 H   0  0  0  0  0  0  0  0  0  0  0  0
   52.8848  153.9892   24.5068 H   0  0  0  0  0  0  0  0  0  0  0  0
   52.3922  155.7166   24.5068 H   0  0  0  0  0  0  0  0  0  0  0  0
  1  2  1  0
  2  3  1  0
  3  4  1  0
  4  5  1  0
  5  6  2  0
  6  7  1  0
  7  8  2  0
  8  9  1  0
  9 10  1  0
 10 11  1  0
 11 12  2  0
 12 13  1  0
 13 14  2  0
 14 15  1  0
 15 16  1  0
 15 17  2  0
 17 18  1  0
 18 19  2  0
 18 20  1  0
 20 21  1  0
  8 22  1  0
 22 23  2  0
 23 24  1  0
 23  5  1  0
 20  9  2  0
 17 11  1  0
  1 25  1  0
  1 26  1  0
  1 27  1  0
  2 28  1  0
  2 29  1  0
  3 30  1  0
  3 31  1  0
  4 32  1  0
  4 33  1  0
  6 34  1  0
  7 35  1  0
 12 36  1  0
 13 37  1  0
 14 38  1  0
 16 39  1  0
 21 40  1  0
 22 41  1  0
 24 42  1  0
 24 43  1  0
 24 44  1  0
M  END
>  <meeko>  (3) 
{"is_sidechain": [false], "free_energy": -10.195, "intermolecular_energy": -13.743, "internal_energy": -0.061}

$$$$
cand_052_out
     RDKit          3D

 44 46  0  0  0  0  0  0  0  0999 V2000
   54.2250  162.2380   30.8730 C   0  0  0  0  0  0  0  0  0  0  0  0
   52.7080  162.2610   30.7840 C   0  0  0  0  0  0  0  0  0  0  0  0
   52.0800  161.1400   31.6130 C   0  0  0  0  0  0  0  0  0  0  0  0
   50.8410  160.5670   30.9200 C   0  0  0  0  0  0  0  0  0  0  0  0
   51.1380  159.2480   30.2400 C   0  0  0  0  0  0  0  0  0  0  0  0
   52.4180  159.0490   29.6990 C   0  0  0  0  0  0  0  0  0  0  0  0
   52.7490  157.8570   29.0520 C   0  0  0  0  0  0  0  0  0  0  0  0
   51.8120  156.8270   28.9310 C   0  0  0  0  0  0  0  0  0  0  0  0
   52.1280  155.5640   28.2310 C   0  0  0  0  0  0  0  0  0  0  0  0
   52.6540  155.7690   26.9600 O   0  0  0  0  0  0  0  0  0  0  0  0
   52.9940  154.6800   26.1980 C   0  0  0  0  0  0  0  0  0  0  0  0
   53.5300  154.9330   24.9360 C   0  0  0  0  0  0  0  0  0  0  0  0
   53.8950  153.8680   24.1070 C   0  0  0  0  0  0  0  0  0  0  0  0
   53.7230  152.5530   24.5420 C   0  0  0  0  0  0  0  0  0  0  0  0
   53.1870  152.3040   25.8040 C   0  0  0  0  0  0  0  0  0  0  0  0
   53.0450  150.9920   26.1660 O   0  0  0  0  0  0  0  0  0  0  0  0
   52.8220  153.3690   26.6310 C   0  0  0  0  0  0  0  0  0  0  0  0
   52.2560  153.1510   27.9630 C   0  0  0  0  0  0  0  0  0  0  0  0
   52.0680  152.0230   28.4140 O   0  0  0  0  0  0  0  0  0  0  0  0
   51.9100  154.3490   28.7650 C   0  0  0  0  0  0  0  0  0  0  0  0
   51.3630  154.1310   30.0160 O   0  0  0  0  0  0  0  0  0  0  0  0
   50.5280  157.0310   29.4590 C   0  0  0  0  0  0  0  0  0  0  0  0
   50.1750  158.2290   30.1080 C   0  0  0  0  0  0  0  0  0  0  0  0
   48.7840  158.3700   30.6650 C   0  0  0  0  0  0  0  0  0  0  0  0
   54.5303  162.2334   31.9298 H   0  0  0  0  0  0  0  0  0  0  0  0
   54.6077  161.3340   30.3768 H   0  0  0  0  0  0  0  0  0  0  0  0
   54.6350  163.1300   30.3768 H   0  0  0  0  0  0  0  0  0  0  0  0
   52.3428  163.2291   31.1575 H   0  0  0  0  0  0  0  0  0  0  0  0
   52.4221  162.1135   29.7321 H   0  0  0  0  0  0  0  0  0  0  0  0
   52.8191  160.3367   31.7486 H   0  0  0  0  0  0  0  0  0  0  0  0
   51.7751  161.5544   32.5853 H   0  0  0  0  0  0  0  0  0  0  0  0
   50.0528  160.4109   31.6713 H   0  0  0  0  0  0  0  0  0  0  0  0
   50.5170  161.2834   30.1507 H   0  0  0  0  0  0  0  0  0  0  0  0
   53.1722  159.8450   29.7863 H   0  0  0  0  0  0  0  0  0  0  0  0
   53.7578  157.7271   28.6331 H   0  0  0  0  0  0  0  0  0  0  0  0
   53.6655  155.9693   24.5930 H   0  0  0  0  0  0  0  0  0  0  0  0
   54.3180  154.0666   23.1112 H   0  0  0  0  0  0  0  0  0  0  0  0
   54.0100  151.7148   23.8900 H   0  0  0  0  0  0  0  0  0  0  0  0
   52.8670  150.3430   25.5150 H   0  0  0  0  0  0  0  0  0  0  0  0
   50.4320  154.1380   30.1270 H   0  0  0  0  0  0  0  0  0  0  0  0
   49.7770  156.2330   29.3631 H   0  0  0  0  0  0  0  0  0  0  0  0
   48.8270  158.3656   31.7642 H   0  0  0  0  0  0  0  0  0  0  0  0
   48.3447  159.3173   30.3190 H   0  0  0  0  0  0  0  0  0  0  0  0
   48.1636  157.5301   30.3190 H   0  0  0  0  0  0  0  0  0  0  0  0
  1  2  1  0
  2  3  1  0
  3  4  1  0
  4  5  1  0
  5  6  2  0
  6  7  1  0
  7  8  2  0
  8  9  1  0
  9 10  1  0
 10 11  1  0
 11 12  2  0
 12 13  1  0
 13 14  2  0
 14 15  1  0
 15 16  1  0
 15 17  2  0
 17 18  1  0
 18 19  2  0
 18 20  1  0
 20 21  1  0
  8 22  1  0
 22 23  2  0
 23 24  1  0
 23  5  1  0
 20  9  2  0
 17 11  1  0
  1 25  1  0
  1 26  1  0
  1 27  1  0
  2 28  1  0
  2 29  1  0
  3 30  1  0
  3 31  1  0
  4 32  1  0
  4 33  1  0
  6 34  1  0
  7 35  1  0
 12 36  1  0
 13 37  1  0
 14 38  1  0
 16 39  1  0
 21 40  1  0
 22 41  1  0
 24 42  1  0
 24 43  1  0
 24 44  1  0
M  END
>  <meeko>  (4) 
{"is_sidechain": [false], "free_energy": -9.799, "intermolecular_energy": -12.944, "internal_energy": -0.347}

$$$$
cand_052_out
     RDKit          3D

 44 46  0  0  0  0  0  0  0  0999 V2000
   54.0650  151.9030   24.3770 C   0  0  0  0  0  0  0  0  0  0  0  0
   54.0660  153.3620   23.9480 C   0  0  0  0  0  0  0  0  0  0  0  0
   53.1370  154.2030   24.8240 C   0  0  0  0  0  0  0  0  0  0  0  0
   53.3050  153.8540   26.3060 C   0  0  0  0  0  0  0  0  0  0  0  0
   52.7830  154.9540   27.2040 C   0  0  0  0  0  0  0  0  0  0  0  0
   52.9930  156.2870   26.8180 C   0  0  0  0  0  0  0  0  0  0  0  0
   52.5420  157.3460   27.6090 C   0  0  0  0  0  0  0  0  0  0  0  0
   51.8650  157.1030   28.8080 C   0  0  0  0  0  0  0  0  0  0  0  0
   51.3980  158.2040   29.6760 C   0  0  0  0  0  0  0  0  0  0  0  0
   50.0590  158.0820   30.0280 O   0  0  0  0  0  0  0  0  0  0  0  0
   49.4950  159.0380   30.8350 C   0  0  0  0  0  0  0  0  0  0  0  0
   48.1520  158.8680   31.1740 C   0  0  0  0  0  0  0  0  0  0  0  0
   47.5160  159.8060   31.9910 C   0  0  0  0  0  0  0  0  0  0  0  0
   48.2220  160.9130   32.4660 C   0  0  0  0  0  0  0  0  0  0  0  0
   49.5620  161.0800   32.1250 C   0  0  0  0  0  0  0  0  0  0  0  0
   50.1930  162.1870   32.6240 O   0  0  0  0  0  0  0  0  0  0  0  0
   50.1980  160.1410   31.3080 C   0  0  0  0  0  0  0  0  0  0  0  0
   51.6040  160.2790   30.9270 C   0  0  0  0  0  0  0  0  0  0  0  0
   52.2900  161.2290   31.2990 O   0  0  0  0  0  0  0  0  0  0  0  0
   52.1860  159.2240   30.0640 C   0  0  0  0  0  0  0  0  0  0  0  0
   53.5110  159.3710   29.6990 O   0  0  0  0  0  0  0  0  0  0  0  0
   51.6680  155.7700   29.2010 C   0  0  0  0  0  0  0  0  0  0  0  0
   52.1220  154.6920   28.4200 C   0  0  0  0  0  0  0  0  0  0  0  0
   51.8600  153.2890   28.8960 C   0  0  0  0  0  0  0  0  0  0  0  0
   54.0650  151.8438   25.4754 H   0  0  0  0  0  0  0  0  0  0  0  0
   53.1665  151.4056   23.9830 H   0  0  0  0  0  0  0  0  0  0  0  0
   54.9628  151.4043   23.9830 H   0  0  0  0  0  0  0  0  0  0  0  0
   55.0891  153.7578   24.0287 H   0  0  0  0  0  0  0  0  0  0  0  0
   53.7062  153.4173   22.9100 H   0  0  0  0  0  0  0  0  0  0  0  0
   53.3722  155.2675   24.6774 H   0  0  0  0  0  0  0  0  0  0  0  0
   52.0977  153.9911   24.5324 H   0  0  0  0  0  0  0  0  0  0  0  0
   52.7514  152.9276   26.5188 H   0  0  0  0  0  0  0  0  0  0  0  0
   54.3788  153.7276   26.5083 H   0  0  0  0  0  0  0  0  0  0  0  0
   53.5214  156.5011   25.8772 H   0  0  0  0  0  0  0  0  0  0  0  0
   52.7212  158.3819   27.2854 H   0  0  0  0  0  0  0  0  0  0  0  0
   47.5951  157.9969   30.7986 H   0  0  0  0  0  0  0  0  0  0  0  0
   46.4579  159.6723   32.2603 H   0  0  0  0  0  0  0  0  0  0  0  0
   47.7207  161.6519   33.1084 H   0  0  0  0  0  0  0  0  0  0  0  0
   50.9460  162.5330   32.1880 H   0  0  0  0  0  0  0  0  0  0  0  0
   54.1900  159.0570   30.2630 H   0  0  0  0  0  0  0  0  0  0  0  0
   51.1441  155.5628   30.1458 H   0  0  0  0  0  0  0  0  0  0  0  0
   51.8564  153.2696   29.9958 H   0  0  0  0  0  0  0  0  0  0  0  0
   50.8832  152.9507   28.5201 H   0  0  0  0  0  0  0  0  0  0  0  0
   52.6489  152.6209   28.5201 H   0  0  0  0  0  0  0  0  0  0  0  0
  1  2  1  0
  2  3  1  0
  3  4  1  0
  4  5  1  0
  5  6  2  0
  6  7  1  0
  7  8  2  0
  8  9  1  0
  9 10  1  0
 10 11  1  0
 11 12  2  0
 12 13  1  0
 13 14  2  0
 14 15  1  0
 15 16  1  0
 15 17  2  0
 17 18  1  0
 18 19  2  0
 18 20  1  0
 20 21  1  0
  8 22  1  0
 22 23  2  0
 23 24  1  0
 23  5  1  0
 20  9  2  0
 17 11  1  0
  1 25  1  0
  1 26  1  0
  1 27  1  0
  2 28  1  0
  2 29  1  0
  3 30  1  0
  3 31  1  0
  4 32  1  0
  4 33  1  0
  6 34  1  0
  7 35  1  0
 12 36  1  0
 13 37  1  0
 14 38  1  0
 16 39  1  0
 21 40  1  0
 22 41  1  0
 24 42  1  0
 24 43  1  0
 24 44  1  0
M  END
>  <meeko>  (5) 
{"is_sidechain": [false], "free_energy": -9.654, "intermolecular_energy": -12.734, "internal_energy": -0.37}

$$$$
cand_052_out
     RDKit          3D

 44 46  0  0  0  0  0  0  0  0999 V2000
   54.1430  151.4560   24.3340 C   0  0  0  0  0  0  0  0  0  0  0  0
   53.3770  150.9590   25.5490 C   0  0  0  0  0  0  0  0  0  0  0  0
   52.6910  152.1090   26.2880 C   0  0  0  0  0  0  0  0  0  0  0  0
   53.5810  153.3540   26.3210 C   0  0  0  0  0  0  0  0  0  0  0  0
   52.9540  154.4700   27.1290 C   0  0  0  0  0  0  0  0  0  0  0  0
   52.2600  154.1360   28.3030 C   0  0  0  0  0  0  0  0  0  0  0  0
   51.6530  155.1200   29.0860 C   0  0  0  0  0  0  0  0  0  0  0  0
   51.7250  156.4670   28.7210 C   0  0  0  0  0  0  0  0  0  0  0  0
   51.0720  157.5270   29.5180 C   0  0  0  0  0  0  0  0  0  0  0  0
   51.9260  158.5850   29.8120 O   0  0  0  0  0  0  0  0  0  0  0  0
   51.4480  159.6390   30.5460 C   0  0  0  0  0  0  0  0  0  0  0  0
   52.3350  160.6840   30.8050 C   0  0  0  0  0  0  0  0  0  0  0  0
   51.9120  161.7890   31.5500 C   0  0  0  0  0  0  0  0  0  0  0  0
   50.6040  161.8460   32.0360 C   0  0  0  0  0  0  0  0  0  0  0  0
   49.7220  160.8010   31.7760 C   0  0  0  0  0  0  0  0  0  0  0  0
   48.4560  160.9210   32.2820 O   0  0  0  0  0  0  0  0  0  0  0  0
   50.1450  159.6970   31.0300 C   0  0  0  0  0  0  0  0  0  0  0  0
   49.2490  158.5780   30.7340 C   0  0  0  0  0  0  0  0  0  0  0  0
   48.0860  158.5520   31.1320 O   0  0  0  0  0  0  0  0  0  0  0  0
   49.7930  157.4600   29.9290 C   0  0  0  0  0  0  0  0  0  0  0  0
   48.9420  156.4010   29.6670 O   0  0  0  0  0  0  0  0  0  0  0  0
   52.4070  156.8000   27.5400 C   0  0  0  0  0  0  0  0  0  0  0  0
   53.0180  155.8210   26.7350 C   0  0  0  0  0  0  0  0  0  0  0  0
   53.7470  156.2530   25.4910 C   0  0  0  0  0  0  0  0  0  0  0  0
   55.0233  152.0271   24.6639 H   0  0  0  0  0  0  0  0  0  0  0  0
   54.4689  150.5968   23.7293 H   0  0  0  0  0  0  0  0  0  0  0  0
   53.4912  152.1037   23.7293 H   0  0  0  0  0  0  0  0  0  0  0  0
   52.6130  150.2392   25.2200 H   0  0  0  0  0  0  0  0  0  0  0  0
   54.0918  150.4841   26.2372 H   0  0  0  0  0  0  0  0  0  0  0  0
   51.7494  152.3544   25.7749 H   0  0  0  0  0  0  0  0  0  0  0  0
   52.4970  151.7916   27.3232 H   0  0  0  0  0  0  0  0  0  0  0  0
   54.5488  153.0884   26.7713 H   0  0  0  0  0  0  0  0  0  0  0  0
   53.7107  153.7099   25.2883 H   0  0  0  0  0  0  0  0  0  0  0  0
   52.1934  153.0821   28.6109 H   0  0  0  0  0  0  0  0  0  0  0  0
   51.1125  154.8318   29.9997 H   0  0  0  0  0  0  0  0  0  0  0  0
   53.3658  160.6388   30.4237 H   0  0  0  0  0  0  0  0  0  0  0  0
   52.6102  162.6143   31.7535 H   0  0  0  0  0  0  0  0  0  0  0  0
   50.2715  162.7148   32.6230 H   0  0  0  0  0  0  0  0  0  0  0  0
   48.1260  160.2770   32.8760 H   0  0  0  0  0  0  0  0  0  0  0  0
   48.0420  156.5640   29.4610 H   0  0  0  0  0  0  0  0  0  0  0  0
   52.4653  157.8554   27.2355 H   0  0  0  0  0  0  0  0  0  0  0  0
   54.6620  156.7952   25.7718 H   0  0  0  0  0  0  0  0  0  0  0  0
   54.0138  155.3671   24.8960 H   0  0  0  0  0  0  0  0  0  0  0  0
   53.0980  156.9124   24.8960 H   0  0  0  0  0  0  0  0  0  0  0  0
  1  2  1  0
  2  3  1  0
  3  4  1  0
  4  5  1  0
  5  6  2  0
  6  7  1  0
  7  8  2  0
  8  9  1  0
  9 10  1  0
 10 11  1  0
 11 12  2  0
 12 13  1  0
 13 14  2  0
 14 15  1  0
 15 16  1  0
 15 17  2  0
 17 18  1  0
 18 19  2  0
 18 20  1  0
 20 21  1  0
  8 22  1  0
 22 23  2  0
 23 24  1  0
 23  5  1  0
 20  9  2  0
 17 11  1  0
  1 25  1  0
  1 26  1  0
  1 27  1  0
  2 28  1  0
  2 29  1  0
  3 30  1  0
  3 31  1  0
  4 32  1  0
  4 33  1  0
  6 34  1  0
  7 35  1  0
 12 36  1  0
 13 37  1  0
 14 38  1  0
 16 39  1  0
 21 40  1  0
 22 41  1  0
 24 42  1  0
 24 43  1  0
 24 44  1  0
M  END
>  <meeko>  (6) 
{"is_sidechain": [false], "free_energy": -9.198, "intermolecular_energy": -12.142, "internal_energy": -0.372}

$$$$
cand_052_out
     RDKit          3D

 44 46  0  0  0  0  0  0  0  0999 V2000
   48.2810  160.0830   31.8180 C   0  0  0  0  0  0  0  0  0  0  0  0
   48.5910  160.7350   30.4790 C   0  0  0  0  0  0  0  0  0  0  0  0
   50.0360  160.4760   30.0510 C   0  0  0  0  0  0  0  0  0  0  0  0
   50.6360  159.2910   30.8130 C   0  0  0  0  0  0  0  0  0  0  0  0
   51.1400  158.2180   29.8730 C   0  0  0  0  0  0  0  0  0  0  0  0
   52.3860  158.4050   29.2530 C   0  0  0  0  0  0  0  0  0  0  0  0
   52.9010  157.4540   28.3690 C   0  0  0  0  0  0  0  0  0  0  0  0
   52.1870  156.2870   28.0820 C   0  0  0  0  0  0  0  0  0  0  0  0
   52.6970  155.2750   27.1330 C   0  0  0  0  0  0  0  0  0  0  0  0
   52.2780  153.9860   27.4420 O   0  0  0  0  0  0  0  0  0  0  0  0
   52.6780  152.9470   26.6410 C   0  0  0  0  0  0  0  0  0  0  0  0
   52.2230  151.6740   26.9800 C   0  0  0  0  0  0  0  0  0  0  0  0
   52.5950  150.5710   26.2060 C   0  0  0  0  0  0  0  0  0  0  0  0
   53.4240  150.7440   25.0950 C   0  0  0  0  0  0  0  0  0  0  0  0
   53.8770  152.0170   24.7600 C   0  0  0  0  0  0  0  0  0  0  0  0
   54.6860  152.1150   23.6600 O   0  0  0  0  0  0  0  0  0  0  0  0
   53.5040  153.1190   25.5340 C   0  0  0  0  0  0  0  0  0  0  0  0
   53.9580  154.4730   25.2160 C   0  0  0  0  0  0  0  0  0  0  0  0
   54.6940  154.7060   24.2580 O   0  0  0  0  0  0  0  0  0  0  0  0
   53.4980  155.5740   26.0940 C   0  0  0  0  0  0  0  0  0  0  0  0
   53.9450  156.8480   25.7930 O   0  0  0  0  0  0  0  0  0  0  0  0
   50.9360  156.1070   28.6910 C   0  0  0  0  0  0  0  0  0  0  0  0
   50.3980  157.0580   29.5790 C   0  0  0  0  0  0  0  0  0  0  0  0
   49.0580  156.7890   30.2070 C   0  0  0  0  0  0  0  0  0  0  0  0
   48.5983  160.7503   32.6329 H   0  0  0  0  0  0  0  0  0  0  0  0
   47.1992  159.8993   31.8947 H   0  0  0  0  0  0  0  0  0  0  0  0
   48.8214  159.1280   31.8947 H   0  0  0  0  0  0  0  0  0  0  0  0
   47.9132  160.3245   29.7161 H   0  0  0  0  0  0  0  0  0  0  0  0
   48.4512  161.8211   30.5833 H   0  0  0  0  0  0  0  0  0  0  0  0
   50.0571  160.2571   28.9732 H   0  0  0  0  0  0  0  0  0  0  0  0
   50.6319  161.3726   30.2768 H   0  0  0  0  0  0  0  0  0  0  0  0
   51.4753  159.6501   31.4267 H   0  0  0  0  0  0  0  0  0  0  0  0
   49.8468  158.8528   31.4416 H   0  0  0  0  0  0  0  0  0  0  0  0
   52.9658  159.3150   29.4669 H   0  0  0  0  0  0  0  0  0  0  0  0
   53.8782  157.6251   27.8939 H   0  0  0  0  0  0  0  0  0  0  0  0
   51.5717  151.5374   27.8559 H   0  0  0  0  0  0  0  0  0  0  0  0
   52.2348  149.5663   26.4719 H   0  0  0  0  0  0  0  0  0  0  0  0
   53.7182  149.8763   24.4863 H   0  0  0  0  0  0  0  0  0  0  0  0
   55.5070  152.5600   23.7210 H   0  0  0  0  0  0  0  0  0  0  0  0
   53.9600  157.5080   26.4570 H   0  0  0  0  0  0  0  0  0  0  0  0
   50.3592  155.1972   28.4684 H   0  0  0  0  0  0  0  0  0  0  0  0
   49.1559  156.8087   31.3025 H   0  0  0  0  0  0  0  0  0  0  0  0
   48.3423  157.5614   29.8889 H   0  0  0  0  0  0  0  0  0  0  0  0
   48.6958  155.8002   29.8889 H   0  0  0  0  0  0  0  0  0  0  0  0
  1  2  1  0
  2  3  1  0
  3  4  1  0
  4  5  1  0
  5  6  2  0
  6  7  1  0
  7  8  2  0
  8  9  1  0
  9 10  1  0
 10 11  1  0
 11 12  2  0
 12 13  1  0
 13 14  2  0
 14 15  1  0
 15 16  1  0
 15 17  2  0
 17 18  1  0
 18 19  2  0
 18 20  1  0
 20 21  1  0
  8 22  1  0
 22 23  2  0
 23 24  1  0
 23  5  1  0
 20  9  2  0
 17 11  1  0
  1 25  1  0
  1 26  1  0
  1 27  1  0
  2 28  1  0
  2 29  1  0
  3 30  1  0
  3 31  1  0
  4 32  1  0
  4 33  1  0
  6 34  1  0
  7 35  1  0
 12 36  1  0
 13 37  1  0
 14 38  1  0
 16 39  1  0
 21 40  1  0
 22 41  1  0
 24 42  1  0
 24 43  1  0
 24 44  1  0
M  END
>  <meeko>  (7) 
{"is_sidechain": [false], "free_energy": -8.528, "intermolecular_energy": -11.273, "internal_energy": -0.375}

$$$$
