cand_025_out
     RDKit          3D

 53 56  0  0  0  0  0  0  0  0999 V2000
   54.2340  156.6080   25.0540 C   0  0  0  0  0  0  0  0  0  0  0  0
   53.1370  155.5550   25.0880 C   0  0  0  0  0  0  0  0  0  0  0  0
   52.5800  155.3630   26.4810 C   0  0  0  0  0  0  0  0  0  0  0  0
   52.2560  156.5040   27.2430 C   0  0  0  0  0  0  0  0  0  0  0  0
   51.7450  156.3980   28.5420 C   0  0  0  0  0  0  0  0  0  0  0  0
   51.4270  157.5910   29.3550 C   0  0  0  0  0  0  0  0  0  0  0  0
   50.0960  157.6340   29.7540 O   0  0  0  0  0  0  0  0  0  0  0  0
   49.6660  158.6900   30.5170 C   0  0  0  0  0  0  0  0  0  0  0  0
   48.3270  158.6850   30.9090 C   0  0  0  0  0  0  0  0  0  0  0  0
   47.8240  159.7310   31.6850 C   0  0  0  0  0  0  0  0  0  0  0  0
   48.6600  160.7820   32.0680 C   0  0  0  0  0  0  0  0  0  0  0  0
   49.9960  160.7850   31.6770 C   0  0  0  0  0  0  0  0  0  0  0  0
   50.7580  161.8440   32.0870 O   0  0  0  0  0  0  0  0  0  0  0  0
   50.4990  159.7370   30.9000 C   0  0  0  0  0  0  0  0  0  0  0  0
   51.8960  159.7010   30.4670 C   0  0  0  0  0  0  0  0  0  0  0  0
   52.6910  160.5930   30.7590 O   0  0  0  0  0  0  0  0  0  0  0  0
   52.3320  158.5430   29.6530 C   0  0  0  0  0  0  0  0  0  0  0  0
   53.6500  158.5260   29.2390 O   0  0  0  0  0  0  0  0  0  0  0  0
   51.5760  155.1200   29.0840 C   0  0  0  0  0  0  0  0  0  0  0  0
   51.9000  153.9800   28.3430 C   0  0  0  0  0  0  0  0  0  0  0  0
   52.4100  154.0800   27.0400 C   0  0  0  0  0  0  0  0  0  0  0  0
   52.7390  152.9440   26.2750 N   0  0  0  0  0  0  0  0  0  0  0  0
   54.1730  152.8390   25.9270 C   0  0  0  0  0  0  0  0  0  0  0  0
   54.3920  151.6370   24.9780 C   0  0  0  0  0  0  0  0  0  0  0  0
   53.9150  150.3610   25.5610 N   0  0  0  0  0  0  0  0  0  0  0  0
   54.0910  149.2640   24.6120 C   0  0  0  0  0  0  0  0  0  0  0  0
   52.4870  150.5020   25.9350 C   0  0  0  0  0  0  0  0  0  0  0  0
   52.2340  151.6950   26.8880 C   0  0  0  0  0  0  0  0  0  0  0  0
   54.5152  156.8779   26.0826 H   0  0  0  0  0  0  0  0  0  0  0  0
   55.1121  156.2059   24.5274 H   0  0  0  0  0  0  0  0  0  0  0  0
   53.8681  157.5018   24.5274 H   0  0  0  0  0  0  0  0  0  0  0  0
   52.3219  155.8694   24.4196 H   0  0  0  0  0  0  0  0  0  0  0  0
   53.5727  154.5993   24.7612 H   0  0  0  0  0  0  0  0  0  0  0  0
   52.4084  157.5020   26.8062 H   0  0  0  0  0  0  0  0  0  0  0  0
   47.6681  157.8576   30.6069 H   0  0  0  0  0  0  0  0  0  0  0  0
   46.7686  159.7273   31.9949 H   0  0  0  0  0  0  0  0  0  0  0  0
   48.2631  161.6068   32.6781 H   0  0  0  0  0  0  0  0  0  0  0  0
   51.6870  161.7490   32.1690 H   0  0  0  0  0  0  0  0  0  0  0  0
   54.2780  158.0000   29.6940 H   0  0  0  0  0  0  0  0  0  0  0  0
   51.1834  155.0106   30.1057 H   0  0  0  0  0  0  0  0  0  0  0  0
   51.7523  152.9858   28.7899 H   0  0  0  0  0  0  0  0  0  0  0  0
   54.4966  153.7637   25.4267 H   0  0  0  0  0  0  0  0  0  0  0  0
   54.7609  152.6907   26.8448 H   0  0  0  0  0  0  0  0  0  0  0  0
   53.8463  151.8229   24.0412 H   0  0  0  0  0  0  0  0  0  0  0  0
   55.4738  151.5414   24.8030 H   0  0  0  0  0  0  0  0  0  0  0  0
   54.4630  150.1450   26.3940 H   0  0  0  0  0  0  0  0  0  0  0  0
   54.2419  148.3237   25.1624 H   0  0  0  0  0  0  0  0  0  0  0  0
   53.1950  149.1790   23.9796 H   0  0  0  0  0  0  0  0  0  0  0  0
   54.9686  149.4635   23.9796 H   0  0  0  0  0  0  0  0  0  0  0  0
   51.8965  150.6519   25.0191 H   0  0  0  0  0  0  0  0  0  0  0  0
   52.1902  149.5848   26.4649 H   0  0  0  0  0  0  0  0  0  0  0  0
   51.1541  151.7906   27.0743 H   0  0  0  0  0  0  0  0  0  0  0  0
   52.7604  151.5185   27.8376 H   0  0  0  0  0  0  0  0  0  0  0  0
  1  2  1  0
  2  3  1  0
  3  4  2  0
  4  5  1  0
  5  6  1  0
  6  7  1  0
  7  8  1  0
  8  9  2  0
  9 10  1  0
 10 11  2  0
 11 12  1  0
 12 13  1  0
 12 14  2  0
 14 15  1  0
 15 16  2  0
 15 17  1  0
 17 18  1  0
  5 19  2  0
 19 20  1  0
 20 21  2  0
 21 22  1  0
 22 23  1  0
 23 24  1  0
 24 25  1  0
 25 26  1  0
 25 27  1  0
 27 28  1  0
 21  3  1  0
 28 22  1  0
 17  6  2  0
 14  8  1  0
  1 29  1  0
  1 30  1  0
  1 31  1  0
  2 32  1  0
  2 33  1  0
  4 34  1  0
  9 35  1  0
 10 36  1  0
 11 37  1  0
 13 38  1  0
 18 39  1  0
 19 40  1  0
 20 41  1  0
 23 42  1  0
 23 43  1  0
 24 44  1  0
 24 45  1  0
 25 46  1  0
 26 47  1  0
 26 48  1  0
 26 49  1  0
 27 50  1  0
 27 51  1  0
 28 52  1  0
 28 53  1  0
M  CHG  1  25   1
M  END
>  <meeko>  (1) 
{"is_sidechain": [false], "free_energy": -10.571, "intermolecular_energy": -13.043, "internal_energy": -0.067}

$$$$
cand_025_out
     RDKit          3D

 53 56  0  0  0  0  0  0  0  0999 V2000
   53.7280  156.5740   25.3390 C   0  0  0  0  0  0  0  0  0  0  0  0
   53.1120  155.2020   25.5680 C   0  0  0  0  0  0  0  0  0  0  0  0
   52.5430  155.0630   26.9620 C   0  0  0  0  0  0  0  0  0  0  0  0
   52.0060  156.2050   27.5900 C   0  0  0  0  0  0  0  0  0  0  0  0
   51.4710  156.1480   28.8830 C   0  0  0  0  0  0  0  0  0  0  0  0
   50.9290  157.3470   29.5570 C   0  0  0  0  0  0  0  0  0  0  0  0
   51.8970  158.3160   29.7960 O   0  0  0  0  0  0  0  0  0  0  0  0
   51.5300  159.4830   30.4160 C   0  0  0  0  0  0  0  0  0  0  0  0
   52.5300  160.4330   30.6210 C   0  0  0  0  0  0  0  0  0  0  0  0
   52.2230  161.6430   31.2490 C   0  0  0  0  0  0  0  0  0  0  0  0
   50.9170  161.9010   31.6710 C   0  0  0  0  0  0  0  0  0  0  0  0
   49.9210  160.9510   31.4640 C   0  0  0  0  0  0  0  0  0  0  0  0
   48.6640  161.2680   31.9010 O   0  0  0  0  0  0  0  0  0  0  0  0
   50.2280  159.7410   30.8360 C   0  0  0  0  0  0  0  0  0  0  0  0
   49.2110  158.7150   30.5980 C   0  0  0  0  0  0  0  0  0  0  0  0
   48.0420  158.8660   30.9470 O   0  0  0  0  0  0  0  0  0  0  0  0
   49.6380  157.4710   29.9180 C   0  0  0  0  0  0  0  0  0  0  0  0
   48.6720  156.5050   29.7110 O   0  0  0  0  0  0  0  0  0  0  0  0
   51.4960  154.9220   29.5560 C   0  0  0  0  0  0  0  0  0  0  0  0
   52.0320  153.7830   28.9480 C   0  0  0  0  0  0  0  0  0  0  0  0
   52.5670  153.8340   27.6520 C   0  0  0  0  0  0  0  0  0  0  0  0
   53.1080  152.6970   27.0200 N   0  0  0  0  0  0  0  0  0  0  0  0
   52.0960  151.7530   26.4990 C   0  0  0  0  0  0  0  0  0  0  0  0
   52.7970  150.4860   25.9520 C   0  0  0  0  0  0  0  0  0  0  0  0
   53.7900  150.8000   24.8980 N   0  0  0  0  0  0  0  0  0  0  0  0
   54.4660  149.5850   24.4490 C   0  0  0  0  0  0  0  0  0  0  0  0
   54.7710  151.7760   25.4300 C   0  0  0  0  0  0  0  0  0  0  0  0
   54.1010  153.0570   25.9830 C   0  0  0  0  0  0  0  0  0  0  0  0
   53.9404  157.0471   26.3091 H   0  0  0  0  0  0  0  0  0  0  0  0
   54.6639  156.4656   24.7712 H   0  0  0  0  0  0  0  0  0  0  0  0
   53.0252  157.2014   24.7712 H   0  0  0  0  0  0  0  0  0  0  0  0
   52.3039  155.0489   24.8375 H   0  0  0  0  0  0  0  0  0  0  0  0
   53.9046  154.4489   25.4475 H   0  0  0  0  0  0  0  0  0  0  0  0
   52.0072  157.1642   27.0515 H   0  0  0  0  0  0  0  0  0  0  0  0
   53.5589  160.2302   30.2889 H   0  0  0  0  0  0  0  0  0  0  0  0
   53.0110  162.3932   31.4111 H   0  0  0  0  0  0  0  0  0  0  0  0
   50.6759  162.8532   32.1661 H   0  0  0  0  0  0  0  0  0  0  0  0
   48.1530  160.6300   32.3620 H   0  0  0  0  0  0  0  0  0  0  0  0
   48.6660  156.0100   28.9150 H   0  0  0  0  0  0  0  0  0  0  0  0
   51.0891  154.8533   30.5757 H   0  0  0  0  0  0  0  0  0  0  0  0
   52.0344  152.8291   29.4958 H   0  0  0  0  0  0  0  0  0  0  0  0
   51.4088  151.4695   27.3098 H   0  0  0  0  0  0  0  0  0  0  0  0
   51.5311  152.2357   25.6878 H   0  0  0  0  0  0  0  0  0  0  0  0
   53.3114  149.9805   26.7826 H   0  0  0  0  0  0  0  0  0  0  0  0
   52.0252  149.8426   25.5045 H   0  0  0  0  0  0  0  0  0  0  0  0
   53.3120  151.2070   24.0940 H   0  0  0  0  0  0  0  0  0  0  0  0
   54.7906  149.0016   25.3232 H   0  0  0  0  0  0  0  0  0  0  0  0
   53.7733  148.9827   23.8429 H   0  0  0  0  0  0  0  0  0  0  0  0
   55.3430  149.8560   23.8429 H   0  0  0  0  0  0  0  0  0  0  0  0
   55.3385  151.2974   26.2418 H   0  0  0  0  0  0  0  0  0  0  0  0
   55.4249  152.0763   24.5980 H   0  0  0  0  0  0  0  0  0  0  0  0
   54.8691  153.7094   26.4240 H   0  0  0  0  0  0  0  0  0  0  0  0
   53.5932  153.5842   25.1619 H   0  0  0  0  0  0  0  0  0  0  0  0
  1  2  1  0
  2  3  1  0
  3  4  2  0
  4  5  1  0
  5  6  1  0
  6  7  1  0
  7  8  1  0
  8  9  2  0
  9 10  1  0
 10 11  2  0
 11 12  1  0
 12 13  1  0
 12 14  2  0
 14 15  1  0
 15 16  2  0
 15 17  1  0
 17 18  1  0
  5 19  2  0
 19 20  1  0
 20 21  2  0
 21 22  1  0
 22 23  1  0
 23 24  1  0
 24 25  1  0
 25 26  1  0
 25 27  1  0
 27 28  1  0
 21  3  1  0
 28 22  1  0
 17  6  2  0
 14  8  1  0
  1 29  1  0
  1 30  1  0
  1 31  1  0
  2 32  1  0
  2 33  1  0
  4 34  1  0
  9 35  1  0
 10 36  1  0
 11 37  1  0
 13 38  1  0
 18 39  1  0
 19 40  1  0
 20 41  1  0
 23 42  1  0
 23 43  1  0
 24 44  1  0
 24 45  1  0
 25 46  1  0
 26 47  1  0
 26 48  1  0
 26 49  1  0
 27 50  1  0
 27 51  1  0
 28 52  1  0
 28 53  1  0
M  CHG  1  25   1
M  END
>  <meeko>  (2) 
{"is_sidechain": [false], "free_energy": -8.771, "intermolecular_energy": -11.928, "internal_energy": 1.038}

$$$$
cand_025_out
     RDKit          3D

 53 56  0  0  0  0  0  0  0  0999 V2000
   50.9720  153.6610   30.4180 C   0  0  0  0  0  0  0  0  0  0  0  0
   51.9460  153.7280   29.2510 C   0  0  0  0  0  0  0  0  0  0  0  0
   52.1720  155.1490   28.7820 C   0  0  0  0  0  0  0  0  0  0  0  0
   51.6990  156.2080   29.5830 C   0  0  0  0  0  0  0  0  0  0  0  0
   51.8670  157.5450   29.2050 C   0  0  0  0  0  0  0  0  0  0  0  0
   51.3510  158.6590   30.0280 C   0  0  0  0  0  0  0  0  0  0  0  0
   50.0200  158.4920   30.3910 O   0  0  0  0  0  0  0  0  0  0  0  0
   49.4150  159.4540   31.1580 C   0  0  0  0  0  0  0  0  0  0  0  0
   48.0830  159.2380   31.5120 C   0  0  0  0  0  0  0  0  0  0  0  0
   47.4070  160.1810   32.2910 C   0  0  0  0  0  0  0  0  0  0  0  0
   48.0630  161.3380   32.7140 C   0  0  0  0  0  0  0  0  0  0  0  0
   49.3930  161.5510   32.3600 C   0  0  0  0  0  0  0  0  0  0  0  0
   49.9740  162.7060   32.8080 O   0  0  0  0  0  0  0  0  0  0  0  0
   50.0680  160.6080   31.5810 C   0  0  0  0  0  0  0  0  0  0  0  0
   51.4660  160.7930   31.1860 C   0  0  0  0  0  0  0  0  0  0  0  0
   52.1070  161.7890   31.5140 O   0  0  0  0  0  0  0  0  0  0  0  0
   52.0930  159.7310   30.3670 C   0  0  0  0  0  0  0  0  0  0  0  0
   53.4080  159.9230   29.9890 O   0  0  0  0  0  0  0  0  0  0  0  0
   52.5060  157.8140   27.9900 C   0  0  0  0  0  0  0  0  0  0  0  0
   52.9730  156.7720   27.1820 C   0  0  0  0  0  0  0  0  0  0  0  0
   52.8100  155.4300   27.5580 C   0  0  0  0  0  0  0  0  0  0  0  0
   53.2770  154.3670   26.7610 N   0  0  0  0  0  0  0  0  0  0  0  0
   52.3180  153.2510   26.6130 C   0  0  0  0  0  0  0  0  0  0  0  0
   52.9840  152.0900   25.8380 C   0  0  0  0  0  0  0  0  0  0  0  0
   53.4850  152.5100   24.5080 N   0  0  0  0  0  0  0  0  0  0  0  0
   54.1540  151.3990   23.8350 C   0  0  0  0  0  0  0  0  0  0  0  0
   54.4150  153.6520   24.6780 C   0  0  0  0  0  0  0  0  0  0  0  0
   53.7760  154.8330   25.4480 C   0  0  0  0  0  0  0  0  0  0  0  0
   51.5308  153.6994   31.3647 H   0  0  0  0  0  0  0  0  0  0  0  0
   50.2789  154.5136   30.3665 H   0  0  0  0  0  0  0  0  0  0  0  0
   50.4021  152.7215   30.3665 H   0  0  0  0  0  0  0  0  0  0  0  0
   52.9091  153.3010   29.5673 H   0  0  0  0  0  0  0  0  0  0  0  0
   51.5139  153.1589   28.4147 H   0  0  0  0  0  0  0  0  0  0  0  0
   51.1854  155.9780   30.5281 H   0  0  0  0  0  0  0  0  0  0  0  0
   47.5654  158.3265   31.1784 H   0  0  0  0  0  0  0  0  0  0  0  0
   46.3569  160.0112   32.5710 H   0  0  0  0  0  0  0  0  0  0  0  0
   47.5303  162.0806   33.3261 H   0  0  0  0  0  0  0  0  0  0  0  0
   49.9320  163.4840   32.2870 H   0  0  0  0  0  0  0  0  0  0  0  0
   53.6940  159.6620   29.1360 H   0  0  0  0  0  0  0  0  0  0  0  0
   52.6427  158.8564   27.6664 H   0  0  0  0  0  0  0  0  0  0  0  0
   53.4776  157.0092   26.2338 H   0  0  0  0  0  0  0  0  0  0  0  0
   52.0118  152.8977   27.6087 H   0  0  0  0  0  0  0  0  0  0  0  0
   51.4354  153.6007   26.0573 H   0  0  0  0  0  0  0  0  0  0  0  0
   53.8298  151.7100   26.4298 H   0  0  0  0  0  0  0  0  0  0  0  0
   52.2214  151.3135   25.6783 H   0  0  0  0  0  0  0  0  0  0  0  0
   52.6980  152.7990   23.9270 H   0  0  0  0  0  0  0  0  0  0  0  0
   54.5683  150.7110   24.5866 H   0  0  0  0  0  0  0  0  0  0  0  0
   53.4293  150.8615   23.2058 H   0  0  0  0  0  0  0  0  0  0  0  0
   54.9681  151.7881   23.2058 H   0  0  0  0  0  0  0  0  0  0  0  0
   55.2989  153.3063   25.2342 H   0  0  0  0  0  0  0  0  0  0  0  0
   54.6822  154.0152   23.6747 H   0  0  0  0  0  0  0  0  0  0  0  0
   54.5304  155.6186   25.6024 H   0  0  0  0  0  0  0  0  0  0  0  0
   52.9355  155.2345   24.8628 H   0  0  0  0  0  0  0  0  0  0  0  0
  1  2  1  0
  2  3  1  0
  3  4  2  0
  4  5  1  0
  5  6  1  0
  6  7  1  0
  7  8  1  0
  8  9  2  0
  9 10  1  0
 10 11  2  0
 11 12  1  0
 12 13  1  0
 12 14  2  0
 14 15  1  0
 15 16  2  0
 15 17  1  0
 17 18  1  0
  5 19  2  0
 19 20  1  0
 20 21  2  0
 21 22  1  0
 22 23  1  0
 23 24  1  0
 24 25  1  0
 25 26  1  0
 25 27  1  0
 27 28  1  0
 21  3  1  0
 28 22  1  0
 17  6  2  0
 14  8  1  0
  1 29  1  0
  1 30  1  0
  1 31  1  0
  2 32  1  0
  2 33  1  0
  4 34  1  0
  9 35  1  0
 10 36  1  0
 11 37  1  0
 13 38  1  0
 18 39  1  0
 19 40  1  0
 20 41  1  0
 23 42  1  0
 23 43  1  0
 24 44  1  0
 24 45  1  0
 25 46  1  0
 26 47  1  0
 26 48  1  0
 26 49  1  0
 27 50  1  0
 27 51  1  0
 28 52  1  0
 28 53  1  0
M  CHG  1  25   1
M  END
>  <meeko>  (3) 
{"is_sidechain": [false], "free_energy": -7.901, "intermolecular_energy": -10.342, "internal_energy": 0.526}

$$$$
cand_025_out
     RDKit          3D

 53 56  0  0  0  0  0  0  0  0999 V2000
   52.4250  161.1600   31.5950 C   0  0  0  0  0  0  0  0  0  0  0  0
   52.5000  160.6100   30.1780 C   0  0  0  0  0  0  0  0  0  0  0  0
   51.7590  159.2990   30.0400 C   0  0  0  0  0  0  0  0  0  0  0  0
   52.3200  158.2870   29.2350 C   0  0  0  0  0  0  0  0  0  0  0  0
   51.6830  157.0530   29.0570 C   0  0  0  0  0  0  0  0  0  0  0  0
   52.2530  155.9980   28.1940 C   0  0  0  0  0  0  0  0  0  0  0  0
   52.8410  156.5020   27.0400 O   0  0  0  0  0  0  0  0  0  0  0  0
   53.4120  155.6300   26.1490 C   0  0  0  0  0  0  0  0  0  0  0  0
   54.0040  156.1800   25.0130 C   0  0  0  0  0  0  0  0  0  0  0  0
   54.6020  155.3470   24.0640 C   0  0  0  0  0  0  0  0  0  0  0  0
   54.6050  153.9640   24.2530 C   0  0  0  0  0  0  0  0  0  0  0  0
   54.0130  153.4160   25.3880 C   0  0  0  0  0  0  0  0  0  0  0  0
   54.0530  152.0540   25.5090 O   0  0  0  0  0  0  0  0  0  0  0  0
   53.4170  154.2500   26.3370 C   0  0  0  0  0  0  0  0  0  0  0  0
   52.7840  153.7160   27.5440 C   0  0  0  0  0  0  0  0  0  0  0  0
   52.7410  152.5100   27.7760 O   0  0  0  0  0  0  0  0  0  0  0  0
   52.1860  154.6860   28.4900 C   0  0  0  0  0  0  0  0  0  0  0  0
   51.5800  154.1690   29.6200 O   0  0  0  0  0  0  0  0  0  0  0  0
   50.4510  156.8480   29.6880 C   0  0  0  0  0  0  0  0  0  0  0  0
   49.8800  157.8450   30.4840 C   0  0  0  0  0  0  0  0  0  0  0  0
   50.5150  159.0830   30.6680 C   0  0  0  0  0  0  0  0  0  0  0  0
   49.9590  160.0990   31.4680 N   0  0  0  0  0  0  0  0  0  0  0  0
   48.8450  160.8330   30.8310 C   0  0  0  0  0  0  0  0  0  0  0  0
   48.4060  162.0060   31.7400 C   0  0  0  0  0  0  0  0  0  0  0  0
   48.0090  161.5550   33.0950 N   0  0  0  0  0  0  0  0  0  0  0  0
   47.6550  162.6970   33.9340 C   0  0  0  0  0  0  0  0  0  0  0  0
   49.1270  160.7900   33.6980 C   0  0  0  0  0  0  0  0  0  0  0  0
   49.5880  159.6070   32.8140 C   0  0  0  0  0  0  0  0  0  0  0  0
   52.5374  160.3357   32.3147 H   0  0  0  0  0  0  0  0  0  0  0  0
   53.2316  161.8923   31.7473 H   0  0  0  0  0  0  0  0  0  0  0  0
   51.4518  161.6496   31.7473 H   0  0  0  0  0  0  0  0  0  0  0  0
   52.0563  161.3432   29.4884 H   0  0  0  0  0  0  0  0  0  0  0  0
   53.5584  160.4292   29.9389 H   0  0  0  0  0  0  0  0  0  0  0  0
   53.2819  158.4713   28.7343 H   0  0  0  0  0  0  0  0  0  0  0  0
   54.0003  157.2698   24.8638 H   0  0  0  0  0  0  0  0  0  0  0  0
   55.0703  155.7809   23.1682 H   0  0  0  0  0  0  0  0  0  0  0  0
   55.0747  153.3074   23.5058 H   0  0  0  0  0  0  0  0  0  0  0  0
   53.7210  151.5120   24.8200 H   0  0  0  0  0  0  0  0  0  0  0  0
   50.7720  154.5320   29.9260 H   0  0  0  0  0  0  0  0  0  0  0  0
   49.9255  155.8907   29.5560 H   0  0  0  0  0  0  0  0  0  0  0  0
   48.9144  157.6557   30.9757 H   0  0  0  0  0  0  0  0  0  0  0  0
   49.1756  161.2276   29.8589 H   0  0  0  0  0  0  0  0  0  0  0  0
   47.9960  160.1495   30.6827 H   0  0  0  0  0  0  0  0  0  0  0  0
   49.2442  162.7121   31.8345 H   0  0  0  0  0  0  0  0  0  0  0  0
   47.5291  162.4799   31.2747 H   0  0  0  0  0  0  0  0  0  0  0  0
   47.1880  160.9530   33.0230 H   0  0  0  0  0  0  0  0  0  0  0  0
   47.7425  162.4147   34.9935 H   0  0  0  0  0  0  0  0  0  0  0  0
   48.3358  163.5341   33.7202 H   0  0  0  0  0  0  0  0  0  0  0  0
   46.6201  163.0023   33.7202 H   0  0  0  0  0  0  0  0  0  0  0  0
   49.9785  161.4703   33.8471 H   0  0  0  0  0  0  0  0  0  0  0  0
   48.7676  160.3723   34.6500 H   0  0  0  0  0  0  0  0  0  0  0  0
   50.4596  159.1226   33.2784 H   0  0  0  0  0  0  0  0  0  0  0  0
   48.7657  158.8823   32.7209 H   0  0  0  0  0  0  0  0  0  0  0  0
  1  2  1  0
  2  3  1  0
  3  4  2  0
  4  5  1  0
  5  6  1  0
  6  7  1  0
  7  8  1  0
  8  9  2  0
  9 10  1  0
 10 11  2  0
 11 12  1  0
 12 13  1  0
 12 14  2  0
 14 15  1  0
 15 16  2  0
 15 17  1  0
 17 18  1  0
  5 19  2  0
 19 20  1  0
 20 21  2  0
 21 22  1  0
 22 23  1  0
 23 24  1  0
 24 25  1  0
 25 26  1  0
 25 27  1  0
 27 28  1  0
 21  3  1  0
 28 22  1  0
 17  6  2  0
 14  8  1  0
  1 29  1  0
  1 30  1  0
  1 31  1  0
  2 32  1  0
  2 33  1  0
  4 34  1  0
  9 35  1  0
 10 36  1  0
 11 37  1  0
 13 38  1  0
 18 39  1  0
 19 40  1  0
 20 41  1  0
 23 42  1  0
 23 43  1  0
 24 44  1  0
 24 45  1  0
 25 46  1  0
 26 47  1  0
 26 48  1  0
 26 49  1  0
 27 50  1  0
 27 51  1  0
 28 52  1  0
 28 53  1  0
M  CHG  1  25   1
M  END
>  <meeko>  (4) 
{"is_sidechain": [false], "free_energy": -7.632, "intermolecular_energy": -10.087, "internal_energy": 0.603}

$$$$
