cand_007_out
     RDKit          3D

 35 37  0  0  0  0  0  0  0  0999 V2000
   52.1990  153.0110   28.7870 O   0  0  0  0  0  0  0  0  0  0  0  0
   52.2920  154.1790   28.4160 C   0  0  0  0  0  0  0  0  0  0  0  0
   51.7780  155.2790   29.2650 C   0  0  0  0  0  0  0  0  0  0  0  0
   51.1870  154.9250   30.4640 O   0  0  0  0  0  0  0  0  0  0  0  0
   51.8980  156.5440   28.8210 C   0  0  0  0  0  0  0  0  0  0  0  0
   51.4100  157.7180   29.5760 C   0  0  0  0  0  0  0  0  0  0  0  0
   52.2000  158.8580   29.7570 C   0  0  0  0  0  0  0  0  0  0  0  0
   51.7100  159.9630   30.4570 C   0  0  0  0  0  0  0  0  0  0  0  0
   50.4110  159.9620   30.9910 C   0  0  0  0  0  0  0  0  0  0  0  0
   49.9090  161.1750   31.7430 C   0  0  0  0  0  0  0  0  0  0  0  0
   49.4120  160.8520   32.9690 F   0  0  0  0  0  0  0  0  0  0  0  0
   50.8930  162.0890   31.9710 F   0  0  0  0  0  0  0  0  0  0  0  0
   48.9150  161.8500   31.1030 F   0  0  0  0  0  0  0  0  0  0  0  0
   49.5950  158.8240   30.8030 C   0  0  0  0  0  0  0  0  0  0  0  0
   48.1890  158.7600   31.3550 C   0  0  0  0  0  0  0  0  0  0  0  0
   47.2730  159.4020   30.5740 F   0  0  0  0  0  0  0  0  0  0  0  0
   50.1080  157.7180   30.0980 C   0  0  0  0  0  0  0  0  0  0  0  0
   52.4710  156.8850   27.6010 O   0  0  0  0  0  0  0  0  0  0  0  0
   52.9610  155.8890   26.7960 C   0  0  0  0  0  0  0  0  0  0  0  0
   53.5350  156.2780   25.5850 C   0  0  0  0  0  0  0  0  0  0  0  0
   54.0530  155.3130   24.7180 C   0  0  0  0  0  0  0  0  0  0  0  0
   53.9960  153.9610   25.0610 C   0  0  0  0  0  0  0  0  0  0  0  0
   53.4230  153.5760   26.2710 C   0  0  0  0  0  0  0  0  0  0  0  0
   53.4000  152.2350   26.5430 O   0  0  0  0  0  0  0  0  0  0  0  0
   52.9050  154.5410   27.1380 C   0  0  0  0  0  0  0  0  0  0  0  0
   50.2960  155.1620   30.6360 H   0  0  0  0  0  0  0  0  0  0  0  0
   53.2189  158.8846   29.3433 H   0  0  0  0  0  0  0  0  0  0  0  0
   52.3508  160.8468   30.5920 H   0  0  0  0  0  0  0  0  0  0  0  0
   47.8953  157.7034   31.4408 H   0  0  0  0  0  0  0  0  0  0  0  0
   48.1985  159.2680   32.3306 H   0  0  0  0  0  0  0  0  0  0  0  0
   49.4720  156.8323   29.9531 H   0  0  0  0  0  0  0  0  0  0  0  0
   53.5795  157.3430   25.3135 H   0  0  0  0  0  0  0  0  0  0  0  0
   54.5065  155.6189   23.7636 H   0  0  0  0  0  0  0  0  0  0  0  0
   54.4027  153.2013   24.3773 H   0  0  0  0  0  0  0  0  0  0  0  0
   52.5830  151.7790   26.5830 H   0  0  0  0  0  0  0  0  0  0  0  0
  1  2  2  0
  2  3  1  0
  3  4  1  0
  3  5  2  0
  5  6  1  0
  6  7  2  0
  7  8  1  0
  8  9  2  0
  9 10  1  0
 10 11  1  0
 10 12  1  0
 10 13  1  0
  9 14  1  0
 14 15  1  0
 15 16  1  0
 14 17  2  0
  5 18  1  0
 18 19  1  0
 19 20  2  0
 20 21  1  0
 21 22  2  0
 22 23  1  0
 23 24  1  0
 23 25  2  0
 25  2  1  0
 17  6  1  0
 25 19  1  0
  4 26  1  0
  7 27  1  0
  8 28  1  0
 15 29  1  0
 15 30  1  0
 17 31  1  0
 20 32  1  0
 21 33  1  0
 22 34  1  0
 24 35  1  0
M  END
>  <meeko>  (1) 
{"is_sidechain": [false], "free_energy": -11.074, "intermolecular_energy": -13.664, "internal_energy": -0.209}

$$$$
cand_007_out
     RDKit          3D

 35 37  0  0  0  0  0  0  0  0999 V2000
   52.4670  152.9100   28.8000 O   0  0  0  0  0  0  0  0  0  0  0  0
   52.4150  154.0800   28.4260 C   0  0  0  0  0  0  0  0  0  0  0  0
   51.7420  155.1040   29.2580 C   0  0  0  0  0  0  0  0  0  0  0  0
   51.1750  154.6780   30.4460 O   0  0  0  0  0  0  0  0  0  0  0  0
   51.7060  156.3730   28.8110 C   0  0  0  0  0  0  0  0  0  0  0  0
   51.0510  157.4740   29.5490 C   0  0  0  0  0  0  0  0  0  0  0  0
   49.7650  157.3410   30.0840 C   0  0  0  0  0  0  0  0  0  0  0  0
   49.1750  158.3880   30.7950 C   0  0  0  0  0  0  0  0  0  0  0  0
   49.8580  159.5990   30.9980 C   0  0  0  0  0  0  0  0  0  0  0  0
   49.1910  160.7140   31.7740 C   0  0  0  0  0  0  0  0  0  0  0  0
   47.9190  160.3970   32.1410 F   0  0  0  0  0  0  0  0  0  0  0  0
   49.8480  161.0080   32.9310 F   0  0  0  0  0  0  0  0  0  0  0  0
   49.1020  161.8870   31.0890 F   0  0  0  0  0  0  0  0  0  0  0  0
   51.1630  159.7440   30.4790 C   0  0  0  0  0  0  0  0  0  0  0  0
   51.9500  161.0210   30.6620 C   0  0  0  0  0  0  0  0  0  0  0  0
   52.5120  161.1370   31.8990 F   0  0  0  0  0  0  0  0  0  0  0  0
   51.7400  158.6780   29.7610 C   0  0  0  0  0  0  0  0  0  0  0  0
   52.2560  156.7850   27.6020 O   0  0  0  0  0  0  0  0  0  0  0  0
   52.8900  155.8600   26.8130 C   0  0  0  0  0  0  0  0  0  0  0  0
   53.4350  156.3190   25.6130 C   0  0  0  0  0  0  0  0  0  0  0  0
   54.0950  155.4290   24.7630 C   0  0  0  0  0  0  0  0  0  0  0  0
   54.2080  154.0820   25.1110 C   0  0  0  0  0  0  0  0  0  0  0  0
   53.6630  153.6260   26.3090 C   0  0  0  0  0  0  0  0  0  0  0  0
   53.8100  152.2950   26.5870 O   0  0  0  0  0  0  0  0  0  0  0  0
   53.0040  154.5170   27.1600 C   0  0  0  0  0  0  0  0  0  0  0  0
   50.2970  154.9260   30.6610 H   0  0  0  0  0  0  0  0  0  0  0  0
   49.2122  156.4005   29.9428 H   0  0  0  0  0  0  0  0  0  0  0  0
   48.1608  158.2629   31.2021 H   0  0  0  0  0  0  0  0  0  0  0  0
   52.7527  161.0469   29.9103 H   0  0  0  0  0  0  0  0  0  0  0  0
   51.2448  161.8572   30.5454 H   0  0  0  0  0  0  0  0  0  0  0  0
   52.7564  158.7923   29.3563 H   0  0  0  0  0  0  0  0  0  0  0  0
   53.3448  157.3800   25.3372 H   0  0  0  0  0  0  0  0  0  0  0  0
   54.5265  155.7900   23.8178 H   0  0  0  0  0  0  0  0  0  0  0  0
   54.7268  153.3815   24.4400 H   0  0  0  0  0  0  0  0  0  0  0  0
   53.0550  151.7490   26.6760 H   0  0  0  0  0  0  0  0  0  0  0  0
  1  2  2  0
  2  3  1  0
  3  4  1  0
  3  5  2  0
  5  6  1  0
  6  7  2  0
  7  8  1  0
  8  9  2  0
  9 10  1  0
 10 11  1  0
 10 12  1  0
 10 13  1  0
  9 14  1  0
 14 15  1  0
 15 16  1  0
 14 17  2  0
  5 18  1  0
 18 19  1  0
 19 20  2  0
 20 21  1  0
 21 22  2  0
 22 23  1  0
 23 24  1  0
 23 25  2  0
 25  2  1  0
 17  6  1  0
 25 19  1  0
  4 26  1  0
  7 27  1  0
  8 28  1  0
 15 29  1  0
 15 30  1  0
 17 31  1  0
 20 32  1  0
 21 33  1  0
 22 34  1  0
 24 35  1  0
M  END
>  <meeko>  (2) 
{"is_sidechain": [false], "free_energy": -11.023, "intermolecular_energy": -13.573, "internal_energy": -0.237}

$$$$
cand_007_out
     RDKit          3D

 35 37  0  0  0  0  0  0  0  0999 V2000
   52.5870  160.6480   30.6520 O   0  0  0  0  0  0  0  0  0  0  0  0
   51.8390  159.7060   30.3990 C   0  0  0  0  0  0  0  0  0  0  0  0
   52.3410  158.5300   29.6510 C   0  0  0  0  0  0  0  0  0  0  0  0
   53.6640  158.5570   29.2490 O   0  0  0  0  0  0  0  0  0  0  0  0
   51.4880  157.5210   29.3920 C   0  0  0  0  0  0  0  0  0  0  0  0
   51.8740  156.3060   28.6440 C   0  0  0  0  0  0  0  0  0  0  0  0
   51.5010  155.0280   29.0710 C   0  0  0  0  0  0  0  0  0  0  0  0
   51.8600  153.8950   28.3360 C   0  0  0  0  0  0  0  0  0  0  0  0
   52.5980  154.0100   27.1460 C   0  0  0  0  0  0  0  0  0  0  0  0
   52.9700  152.7640   26.3730 C   0  0  0  0  0  0  0  0  0  0  0  0
   54.2760  152.4190   26.5500 F   0  0  0  0  0  0  0  0  0  0  0  0
   52.2440  151.6780   26.7560 F   0  0  0  0  0  0  0  0  0  0  0  0
   52.7920  152.8750   25.0280 F   0  0  0  0  0  0  0  0  0  0  0  0
   52.9680  155.2950   26.6920 C   0  0  0  0  0  0  0  0  0  0  0  0
   53.7630  155.4860   25.4210 C   0  0  0  0  0  0  0  0  0  0  0  0
   53.5160  156.6770   24.8040 F   0  0  0  0  0  0  0  0  0  0  0  0
   52.6000  156.4250   27.4490 C   0  0  0  0  0  0  0  0  0  0  0  0
   50.1520  157.5180   29.7780 O   0  0  0  0  0  0  0  0  0  0  0  0
   49.6610  158.5910   30.4770 C   0  0  0  0  0  0  0  0  0  0  0  0
   48.3170  158.5410   30.8510 C   0  0  0  0  0  0  0  0  0  0  0  0
   47.7540  159.6000   31.5650 C   0  0  0  0  0  0  0  0  0  0  0  0
   48.5310  160.7090   31.9020 C   0  0  0  0  0  0  0  0  0  0  0  0
   49.8720  160.7570   31.5270 C   0  0  0  0  0  0  0  0  0  0  0  0
   50.5750  161.8730   31.8900 O   0  0  0  0  0  0  0  0  0  0  0  0
   50.4360  159.6960   30.8140 C   0  0  0  0  0  0  0  0  0  0  0  0
   54.3370  158.7660   29.8670 H   0  0  0  0  0  0  0  0  0  0  0  0
   50.9179  154.9130   29.9966 H   0  0  0  0  0  0  0  0  0  0  0  0
   51.5605  152.8990   28.6942 H   0  0  0  0  0  0  0  0  0  0  0  0
   54.8337  155.4362   25.6681 H   0  0  0  0  0  0  0  0  0  0  0  0
   53.4608  154.6896   24.7249 H   0  0  0  0  0  0  0  0  0  0  0  0
   52.8890  157.4254   27.0944 H   0  0  0  0  0  0  0  0  0  0  0  0
   47.7027  157.6686   30.5835 H   0  0  0  0  0  0  0  0  0  0  0  0
   46.6958  159.5603   31.8626 H   0  0  0  0  0  0  0  0  0  0  0  0
   48.0855  161.5439   32.4628 H   0  0  0  0  0  0  0  0  0  0  0  0
   51.0010  162.3910   31.2370 H   0  0  0  0  0  0  0  0  0  0  0  0
  1  2  2  0
  2  3  1  0
  3  4  1  0
  3  5  2  0
  5  6  1  0
  6  7  2  0
  7  8  1  0
  8  9  2  0
  9 10  1  0
 10 11  1  0
 10 12  1  0
 10 13  1  0
  9 14  1  0
 14 15  1  0
 15 16  1  0
 14 17  2  0
  5 18  1  0
 18 19  1  0
 19 20  2  0
 20 21  1  0
 21 22  2  0
 22 23  1  0
 23 24  1  0
 23 25  2  0
 25  2  1  0
 17  6  1  0
 25 19  1  0
  4 26  1  0
  7 27  1  0
  8 28  1  0
 15 29  1  0
 15 30  1  0
 17 31  1  0
 20 32  1  0
 21 33  1  0
 22 34  1  0
 24 35  1  0
M  END
>  <meeko>  (3) 
{"is_sidechain": [false], "free_energy": -10.523, "intermolecular_energy": -13.179, "internal_energy": -0.012}

$$$$
cand_007_out
     RDKit          3D

 35 37  0  0  0  0  0  0  0  0999 V2000
   52.2960  161.2450   31.2990 O   0  0  0  0  0  0  0  0  0  0  0  0
   51.6170  160.2920   30.9210 C   0  0  0  0  0  0  0  0  0  0  0  0
   52.2090  159.2450   30.0560 C   0  0  0  0  0  0  0  0  0  0  0  0
   53.5340  159.4030   29.6940 O   0  0  0  0  0  0  0  0  0  0  0  0
   51.4300  158.2200   29.6630 C   0  0  0  0  0  0  0  0  0  0  0  0
   51.9080  157.1280   28.7900 C   0  0  0  0  0  0  0  0  0  0  0  0
   52.5680  157.3830   27.5840 C   0  0  0  0  0  0  0  0  0  0  0  0
   53.0290  156.3340   26.7850 C   0  0  0  0  0  0  0  0  0  0  0  0
   52.8500  154.9960   27.1750 C   0  0  0  0  0  0  0  0  0  0  0  0
   53.3620  153.8820   26.2880 C   0  0  0  0  0  0  0  0  0  0  0  0
   52.3660  153.3020   25.5630 F   0  0  0  0  0  0  0  0  0  0  0  0
   54.2760  154.3200   25.3790 F   0  0  0  0  0  0  0  0  0  0  0  0
   53.9680  152.8700   26.9670 F   0  0  0  0  0  0  0  0  0  0  0  0
   52.1990  154.7210   28.3980 C   0  0  0  0  0  0  0  0  0  0  0  0
   51.9730  153.3050   28.8730 C   0  0  0  0  0  0  0  0  0  0  0  0
   51.2570  152.5480   27.9930 F   0  0  0  0  0  0  0  0  0  0  0  0
   51.7380  155.7930   29.1880 C   0  0  0  0  0  0  0  0  0  0  0  0
   50.0910  158.0870   30.0120 O   0  0  0  0  0  0  0  0  0  0  0  0
   49.5170  159.0380   30.8160 C   0  0  0  0  0  0  0  0  0  0  0  0
   48.1730  158.8590   31.1480 C   0  0  0  0  0  0  0  0  0  0  0  0
   47.5280  159.7910   31.9640 C   0  0  0  0  0  0  0  0  0  0  0  0
   48.2240  160.9010   32.4450 C   0  0  0  0  0  0  0  0  0  0  0  0
   49.5640  161.0770   32.1120 C   0  0  0  0  0  0  0  0  0  0  0  0
   50.1850  162.1860   32.6180 O   0  0  0  0  0  0  0  0  0  0  0  0
   50.2100  160.1440   31.2970 C   0  0  0  0  0  0  0  0  0  0  0  0
   54.1320  158.6870   29.7800 H   0  0  0  0  0  0  0  0  0  0  0  0
   52.7261  158.4224   27.2604 H   0  0  0  0  0  0  0  0  0  0  0  0
   53.5395  156.5586   25.8369 H   0  0  0  0  0  0  0  0  0  0  0  0
   52.9522  152.8282   29.0274 H   0  0  0  0  0  0  0  0  0  0  0  0
   51.3886  153.3630   29.8031 H   0  0  0  0  0  0  0  0  0  0  0  0
   51.2321  155.5780   30.1408 H   0  0  0  0  0  0  0  0  0  0  0  0
   47.6230  157.9856   30.7677 H   0  0  0  0  0  0  0  0  0  0  0  0
   46.4695  159.6500   32.2281 H   0  0  0  0  0  0  0  0  0  0  0  0
   47.7145  161.6354   33.0861 H   0  0  0  0  0  0  0  0  0  0  0  0
   50.7290  162.7110   32.0650 H   0  0  0  0  0  0  0  0  0  0  0  0
  1  2  2  0
  2  3  1  0
  3  4  1  0
  3  5  2  0
  5  6  1  0
  6  7  2  0
  7  8  1  0
  8  9  2  0
  9 10  1  0
 10 11  1  0
 10 12  1  0
 10 13  1  0
  9 14  1  0
 14 15  1  0
 15 16  1  0
 14 17  2  0
  5 18  1  0
 18 19  1  0
 19 20  2  0
 20 21  1  0
 21 22  2  0
 22 23  1  0
 23 24  1  0
 23 25  2  0
 25  2  1  0
 17  6  1  0
 25 19  1  0
  4 26  1  0
  7 27  1  0
  8 28  1  0
 15 29  1  0
 15 30  1  0
 17 31  1  0
 20 32  1  0
 21 33  1  0
 22 34  1  0
 24 35  1  0
M  END
>  <meeko>  (4) 
{"is_sidechain": [false], "free_energy": -9.488, "intermolecular_energy": -11.891, "internal_energy": -0.024}

$$$$
cand_007_out
     RDKit          3D

 35 37  0  0  0  0  0  0  0  0999 V2000
   48.1390  158.5420   31.0250 O   0  0  0  0  0  0  0  0  0  0  0  0
   49.2970  158.4760   30.6190 C   0  0  0  0  0  0  0  0  0  0  0  0
   49.7610  157.2880   29.8660 C   0  0  0  0  0  0  0  0  0  0  0  0
   48.8430  156.2740   29.6620 O   0  0  0  0  0  0  0  0  0  0  0  0
   51.0380  157.2550   29.4410 C   0  0  0  0  0  0  0  0  0  0  0  0
   51.6140  156.1170   28.6930 C   0  0  0  0  0  0  0  0  0  0  0  0
   51.3710  154.7910   29.0660 C   0  0  0  0  0  0  0  0  0  0  0  0
   51.9090  153.7320   28.3320 C   0  0  0  0  0  0  0  0  0  0  0  0
   52.7020  153.9690   27.1970 C   0  0  0  0  0  0  0  0  0  0  0  0
   53.2700  152.8000   26.4220 C   0  0  0  0  0  0  0  0  0  0  0  0
   52.6140  151.6370   26.6910 F   0  0  0  0  0  0  0  0  0  0  0  0
   53.1780  152.9740   25.0750 F   0  0  0  0  0  0  0  0  0  0  0  0
   54.5850  152.5550   26.6770 F   0  0  0  0  0  0  0  0  0  0  0  0
   52.9440  155.3020   26.7970 C   0  0  0  0  0  0  0  0  0  0  0  0
   53.7900  155.6230   25.5870 C   0  0  0  0  0  0  0  0  0  0  0  0
   53.2850  156.6400   24.8300 F   0  0  0  0  0  0  0  0  0  0  0  0
   52.3960  156.3570   27.5530 C   0  0  0  0  0  0  0  0  0  0  0  0
   51.9590  158.2690   29.6760 O   0  0  0  0  0  0  0  0  0  0  0  0
   51.5570  159.3840   30.3660 C   0  0  0  0  0  0  0  0  0  0  0  0
   52.5120  160.3810   30.5710 C   0  0  0  0  0  0  0  0  0  0  0  0
   52.1680  161.5420   31.2660 C   0  0  0  0  0  0  0  0  0  0  0  0
   50.8720  161.7060   31.7580 C   0  0  0  0  0  0  0  0  0  0  0  0
   49.9210  160.7090   31.5520 C   0  0  0  0  0  0  0  0  0  0  0  0
   48.6710  160.9350   32.0610 O   0  0  0  0  0  0  0  0  0  0  0  0
   50.2650  159.5480   30.8550 C   0  0  0  0  0  0  0  0  0  0  0  0
   48.0380  156.4530   29.2170 H   0  0  0  0  0  0  0  0  0  0  0  0
   50.7486  154.5799   29.9481 H   0  0  0  0  0  0  0  0  0  0  0  0
   51.7090  152.6972   28.6471 H   0  0  0  0  0  0  0  0  0  0  0  0
   54.7954  155.9088   25.9297 H   0  0  0  0  0  0  0  0  0  0  0  0
   53.8081  154.7235   24.9541 H   0  0  0  0  0  0  0  0  0  0  0  0
   52.5859  157.3948   27.2418 H   0  0  0  0  0  0  0  0  0  0  0  0
   53.5342  160.2522   30.1856 H   0  0  0  0  0  0  0  0  0  0  0  0
   52.9197  162.3290   31.4262 H   0  0  0  0  0  0  0  0  0  0  0  0
   50.6023  162.6202   32.3070 H   0  0  0  0  0  0  0  0  0  0  0  0
   48.5220  160.8740   32.9830 H   0  0  0  0  0  0  0  0  0  0  0  0
  1  2  2  0
  2  3  1  0
  3  4  1  0
  3  5  2  0
  5  6  1  0
  6  7  2  0
  7  8  1  0
  8  9  2  0
  9 10  1  0
 10 11  1  0
 10 12  1  0
 10 13  1  0
  9 14  1  0
 14 15  1  0
 15 16  1  0
 14 17  2  0
  5 18  1  0
 18 19  1  0
 19 20  2  0
 20 21  1  0
 21 22  2  0
 22 23  1  0
 23 24  1  0
 23 25  2  0
 25  2  1  0
 17  6  1  0
 25 19  1  0
  4 26  1  0
  7 27  1  0
  8 28  1  0
 15 29  1  0
 15 30  1  0
 17 31  1  0
 20 32  1  0
 21 33  1  0
 22 34  1  0
 24 35  1  0
M  END
>  <meeko>  (5) 
{"is_sidechain": [false], "free_energy": -9.349, "intermolecular_energy": -11.754, "internal_energy": 0.01}

$$$$
cand_007_out
     RDKit          3D

 35 37  0  0  0  0  0  0  0  0999 V2000
   48.2560  158.4630   31.2880 O   0  0  0  0  0  0  0  0  0  0  0  0
   49.3840  158.5560   30.8080 C   0  0  0  0  0  0  0  0  0  0  0  0
   49.9090  157.4950   29.9180 C   0  0  0  0  0  0  0  0  0  0  0  0
   49.0850  156.4110   29.6760 O   0  0  0  0  0  0  0  0  0  0  0  0
   51.1500  157.6340   29.4140 C   0  0  0  0  0  0  0  0  0  0  0  0
   51.7810  156.6340   28.5280 C   0  0  0  0  0  0  0  0  0  0  0  0
   52.6020  157.0090   27.4590 C   0  0  0  0  0  0  0  0  0  0  0  0
   53.2040  156.0460   26.6470 C   0  0  0  0  0  0  0  0  0  0  0  0
   53.0080  154.6750   26.8850 C   0  0  0  0  0  0  0  0  0  0  0  0
   53.6750  153.6560   25.9880 C   0  0  0  0  0  0  0  0  0  0  0  0
   52.7960  153.0750   25.1250 F   0  0  0  0  0  0  0  0  0  0  0  0
   54.6490  154.2060   25.2100 F   0  0  0  0  0  0  0  0  0  0  0  0
   54.2700  152.6330   26.6610 F   0  0  0  0  0  0  0  0  0  0  0  0
   52.1950  154.2790   27.9700 C   0  0  0  0  0  0  0  0  0  0  0  0
   51.9430  152.8210   28.2780 C   0  0  0  0  0  0  0  0  0  0  0  0
   51.3810  152.1390   27.2390 F   0  0  0  0  0  0  0  0  0  0  0  0
   51.5930  155.2650   28.7750 C   0  0  0  0  0  0  0  0  0  0  0  0
   51.9800  158.7160   29.6870 O   0  0  0  0  0  0  0  0  0  0  0  0
   51.5180  159.7160   30.5030 C   0  0  0  0  0  0  0  0  0  0  0  0
   52.3810  160.7870   30.7420 C   0  0  0  0  0  0  0  0  0  0  0  0
   51.9740  161.8390   31.5640 C   0  0  0  0  0  0  0  0  0  0  0  0
   50.7060  161.8210   32.1480 C   0  0  0  0  0  0  0  0  0  0  0  0
   49.8470  160.7520   31.9080 C   0  0  0  0  0  0  0  0  0  0  0  0
   48.6200  160.7980   32.5110 O   0  0  0  0  0  0  0  0  0  0  0  0
   50.2540  159.6990   31.0840 C   0  0  0  0  0  0  0  0  0  0  0  0
   48.1540  156.5080   29.7290 H   0  0  0  0  0  0  0  0  0  0  0  0
   52.7754  158.0761   27.2557 H   0  0  0  0  0  0  0  0  0  0  0  0
   53.8409  156.3651   25.8088 H   0  0  0  0  0  0  0  0  0  0  0  0
   52.9031  152.3462   28.5286 H   0  0  0  0  0  0  0  0  0  0  0  0
   51.2307  152.7835   29.1154 H   0  0  0  0  0  0  0  0  0  0  0  0
   50.9593  154.9546   29.6189 H   0  0  0  0  0  0  0  0  0  0  0  0
   53.3806  160.8018   30.2830 H   0  0  0  0  0  0  0  0  0  0  0  0
   52.6533  162.6835   31.7520 H   0  0  0  0  0  0  0  0  0  0  0  0
   50.3863  162.6499   32.7966 H   0  0  0  0  0  0  0  0  0  0  0  0
   48.0020  161.4580   32.2670 H   0  0  0  0  0  0  0  0  0  0  0  0
  1  2  2  0
  2  3  1  0
  3  4  1  0
  3  5  2  0
  5  6  1  0
  6  7  2  0
  7  8  1  0
  8  9  2  0
  9 10  1  0
 10 11  1  0
 10 12  1  0
 10 13  1  0
  9 14  1  0
 14 15  1  0
 15 16  1  0
 14 17  2  0
  5 18  1  0
 18 19  1  0
 19 20  2  0
 20 21  1  0
 21 22  2  0
 22 23  1  0
 23 24  1  0
 23 25  2  0
 25  2  1  0
 17  6  1  0
 25 19  1  0
  4 26  1  0
  7 27  1  0
  8 28  1  0
 15 29  1  0
 15 30  1  0
 17 31  1  0
 20 32  1  0
 21 33  1  0
 22 34  1  0
 24 35  1  0
M  END
>  <meeko>  (6) 
{"is_sidechain": [false], "free_energy": -8.712, "intermolecular_energy": -11.096, "internal_energy": 0.137}

$$$$
cand_007_out
     RDKit          3D

 35 37  0  0  0  0  0  0  0  0999 V2000
   54.5230  155.3950   25.1950 O   0  0  0  0  0  0  0  0  0  0  0  0
   53.6660  155.0380   26.0000 C   0  0  0  0  0  0  0  0  0  0  0  0
   52.9980  156.0320   26.8730 C   0  0  0  0  0  0  0  0  0  0  0  0
   53.3950  157.3510   26.7440 O   0  0  0  0  0  0  0  0  0  0  0  0
   52.0660  155.6000   27.7430 C   0  0  0  0  0  0  0  0  0  0  0  0
   51.3460  156.4970   28.6700 C   0  0  0  0  0  0  0  0  0  0  0  0
   50.1180  156.1400   29.2380 C   0  0  0  0  0  0  0  0  0  0  0  0
   49.4650  156.9960   30.1270 C   0  0  0  0  0  0  0  0  0  0  0  0
   50.0260  158.2350   30.4810 C   0  0  0  0  0  0  0  0  0  0  0  0
   49.2940  159.1390   31.4480 C   0  0  0  0  0  0  0  0  0  0  0  0
   48.7320  160.2120   30.8260 F   0  0  0  0  0  0  0  0  0  0  0  0
   48.2710  158.5020   32.0840 F   0  0  0  0  0  0  0  0  0  0  0  0
   50.0840  159.6490   32.4330 F   0  0  0  0  0  0  0  0  0  0  0  0
   51.2720  158.6040   29.9300 C   0  0  0  0  0  0  0  0  0  0  0  0
   51.9270  159.9230   30.2680 C   0  0  0  0  0  0  0  0  0  0  0  0
   51.2330  161.0040   29.8090 F   0  0  0  0  0  0  0  0  0  0  0  0
   51.9130  157.7290   29.0310 C   0  0  0  0  0  0  0  0  0  0  0  0
   51.6950  154.2670   27.8820 O   0  0  0  0  0  0  0  0  0  0  0  0
   52.2920  153.3260   27.0830 C   0  0  0  0  0  0  0  0  0  0  0  0
   51.8830  152.0020   27.2510 C   0  0  0  0  0  0  0  0  0  0  0  0
   52.4510  150.9930   26.4700 C   0  0  0  0  0  0  0  0  0  0  0  0
   53.4280  151.3070   25.5240 C   0  0  0  0  0  0  0  0  0  0  0  0
   53.8350  152.6290   25.3590 C   0  0  0  0  0  0  0  0  0  0  0  0
   54.7960  152.8650   24.4150 O   0  0  0  0  0  0  0  0  0  0  0  0
   53.2660  153.6380   26.1400 C   0  0  0  0  0  0  0  0  0  0  0  0
   53.2300  157.8140   25.9470 H   0  0  0  0  0  0  0  0  0  0  0  0
   49.6614  155.1728   28.9809 H   0  0  0  0  0  0  0  0  0  0  0  0
   48.4976  156.6964   30.5564 H   0  0  0  0  0  0  0  0  0  0  0  0
   52.0108  160.0009   31.3620 H   0  0  0  0  0  0  0  0  0  0  0  0
   52.9102  159.9340   29.7749 H   0  0  0  0  0  0  0  0  0  0  0  0
   52.8830  158.0189   28.6009 H   0  0  0  0  0  0  0  0  0  0  0  0
   51.1143  151.7536   27.9976 H   0  0  0  0  0  0  0  0  0  0  0  0
   52.1280  149.9496   26.6006 H   0  0  0  0  0  0  0  0  0  0  0  0
   53.8759  150.5119   24.9098 H   0  0  0  0  0  0  0  0  0  0  0  0
   55.5340  153.4030   24.6220 H   0  0  0  0  0  0  0  0  0  0  0  0
  1  2  2  0
  2  3  1  0
  3  4  1  0
  3  5  2  0
  5  6  1  0
  6  7  2  0
  7  8  1  0
  8  9  2  0
  9 10  1  0
 10 11  1  0
 10 12  1  0
 10 13  1  0
  9 14  1  0
 14 15  1  0
 15 16  1  0
 14 17  2  0
  5 18  1  0
 18 19  1  0
 19 20  2  0
 20 21  1  0
 21 22  2  0
 22 23  1  0
 23 24  1  0
 23 25  2  0
 25  2  1  0
 17  6  1  0
 25 19  1  0
  4 26  1  0
  7 27  1  0
  8 28  1  0
 15 29  1  0
 15 30  1  0
 17 31  1  0
 20 32  1  0
 21 33  1  0
 22 34  1  0
 24 35  1  0
M  END
>  <meeko>  (7) 
{"is_sidechain": [false], "free_energy": -8.244, "intermolecular_energy": -10.574, "internal_energy": 0.194}

$$$$
cand_007_out
     RDKit          3D

 35 37  0  0  0  0  0  0  0  0999 V2000
   54.0710  154.6120   24.9200 O   0  0  0  0  0  0  0  0  0  0  0  0
   53.3730  154.5310   25.9290 C   0  0  0  0  0  0  0  0  0  0  0  0
   53.0340  155.7450   26.7060 C   0  0  0  0  0  0  0  0  0  0  0  0
   53.5470  156.9470   26.2530 O   0  0  0  0  0  0  0  0  0  0  0  0
   52.2690  155.6110   27.8060 C   0  0  0  0  0  0  0  0  0  0  0  0
   51.8790  156.7490   28.6650 C   0  0  0  0  0  0  0  0  0  0  0  0
   52.7430  157.8230   28.9030 C   0  0  0  0  0  0  0  0  0  0  0  0
   52.3450  158.8970   29.7020 C   0  0  0  0  0  0  0  0  0  0  0  0
   51.0650  158.9310   30.2820 C   0  0  0  0  0  0  0  0  0  0  0  0
   50.6640  160.1100   31.1420 C   0  0  0  0  0  0  0  0  0  0  0  0
   50.0130  159.7230   32.2740 F   0  0  0  0  0  0  0  0  0  0  0  0
   51.7360  160.8370   31.5600 F   0  0  0  0  0  0  0  0  0  0  0  0
   49.8360  160.9920   30.5180 F   0  0  0  0  0  0  0  0  0  0  0  0
   50.1750  157.8620   30.0380 C   0  0  0  0  0  0  0  0  0  0  0  0
   48.7860  157.8390   30.6330 C   0  0  0  0  0  0  0  0  0  0  0  0
   47.9150  158.6780   30.0040 F   0  0  0  0  0  0  0  0  0  0  0  0
   50.5960  156.7860   29.2320 C   0  0  0  0  0  0  0  0  0  0  0  0
   51.7810  154.3930   28.2660 O   0  0  0  0  0  0  0  0  0  0  0  0
   52.0740  153.2530   27.5640 C   0  0  0  0  0  0  0  0  0  0  0  0
   51.5570  152.0540   28.0580 C   0  0  0  0  0  0  0  0  0  0  0  0
   51.8180  150.8560   27.3910 C   0  0  0  0  0  0  0  0  0  0  0  0
   52.5960  150.8550   26.2320 C   0  0  0  0  0  0  0  0  0  0  0  0
   53.1120  152.0520   25.7410 C   0  0  0  0  0  0  0  0  0  0  0  0
   53.8660  151.9790   24.6020 O   0  0  0  0  0  0  0  0  0  0  0  0
   52.8500  153.2510   26.4090 C   0  0  0  0  0  0  0  0  0  0  0  0
   54.1200  156.9620   25.5120 H   0  0  0  0  0  0  0  0  0  0  0  0
   53.7479  157.8216   28.4555 H   0  0  0  0  0  0  0  0  0  0  0  0
   53.0431  159.7282   29.8800 H   0  0  0  0  0  0  0  0  0  0  0  0
   48.3939  156.8135   30.5643 H   0  0  0  0  0  0  0  0  0  0  0  0
   48.8726  158.1814   31.6748 H   0  0  0  0  0  0  0  0  0  0  0  0
   49.9017  155.9541   29.0424 H   0  0  0  0  0  0  0  0  0  0  0  0
   50.9447  152.0534   28.9718 H   0  0  0  0  0  0  0  0  0  0  0  0
   51.4100  149.9112   27.7793 H   0  0  0  0  0  0  0  0  0  0  0  0
   52.8013  149.9103   25.7072 H   0  0  0  0  0  0  0  0  0  0  0  0
   54.7610  152.2530   24.6150 H   0  0  0  0  0  0  0  0  0  0  0  0
  1  2  2  0
  2  3  1  0
  3  4  1  0
  3  5  2  0
  5  6  1  0
  6  7  2  0
  7  8  1  0
  8  9  2  0
  9 10  1  0
 10 11  1  0
 10 12  1  0
 10 13  1  0
  9 14  1  0
 14 15  1  0
 15 16  1  0
 14 17  2  0
  5 18  1  0
 18 19  1  0
 19 20  2  0
 20 21  1  0
 21 22  2  0
 22 23  1  0
 23 24  1  0
 23 25  2  0
 25  2  1  0
 17  6  1  0
 25 19  1  0
  4 26  1  0
  7 27  1  0
  8 28  1  0
 15 29  1  0
 15 30  1  0
 17 31  1  0
 20 32  1  0
 21 33  1  0
 22 34  1  0
 24 35  1  0
M  END
>  <meeko>  (8) 
{"is_sidechain": [false], "free_energy": -8.146, "intermolecular_energy": -10.245, "internal_energy": -0.014}

$$$$
