cand_045_out
     RDKit          3D

 35 37  0  0  0  0  0  0  0  0999 V2000
   49.3500  160.9360   31.6630 C   0  0  0  0  0  0  0  0  0  0  0  0
   49.9790  159.7790   30.9360 C   0  0  0  0  0  0  0  0  0  0  0  0
   49.2370  158.6060   30.7440 C   0  0  0  0  0  0  0  0  0  0  0  0
   49.7880  157.5100   30.0730 C   0  0  0  0  0  0  0  0  0  0  0  0
   51.0970  157.5550   29.5830 C   0  0  0  0  0  0  0  0  0  0  0  0
   51.6950  156.4200   28.8480 C   0  0  0  0  0  0  0  0  0  0  0  0
   52.2660  156.8000   27.6390 O   0  0  0  0  0  0  0  0  0  0  0  0
   52.8630  155.8450   26.8570 C   0  0  0  0  0  0  0  0  0  0  0  0
   53.4170  156.2710   25.6490 C   0  0  0  0  0  0  0  0  0  0  0  0
   54.0400  155.3490   24.8050 C   0  0  0  0  0  0  0  0  0  0  0  0
   54.1090  154.0030   25.1690 C   0  0  0  0  0  0  0  0  0  0  0  0
   53.5560  153.5810   26.3760 C   0  0  0  0  0  0  0  0  0  0  0  0
   53.6600  152.2490   26.6710 O   0  0  0  0  0  0  0  0  0  0  0  0
   52.9330  154.5040   27.2200 C   0  0  0  0  0  0  0  0  0  0  0  0
   52.3410  154.1030   28.4960 C   0  0  0  0  0  0  0  0  0  0  0  0
   52.3670  152.9380   28.8890 O   0  0  0  0  0  0  0  0  0  0  0  0
   51.7000  155.1580   29.3160 C   0  0  0  0  0  0  0  0  0  0  0  0
   51.1570  154.7700   30.5270 O   0  0  0  0  0  0  0  0  0  0  0  0
   51.8350  158.7350   29.7660 C   0  0  0  0  0  0  0  0  0  0  0  0
   51.2960  159.8480   30.4370 C   0  0  0  0  0  0  0  0  0  0  0  0
   52.1400  161.0860   30.6110 C   0  0  0  0  0  0  0  0  0  0  0  0
   52.6430  161.2330   31.8710 F   0  0  0  0  0  0  0  0  0  0  0  0
   49.4361  160.7777   32.7481 H   0  0  0  0  0  0  0  0  0  0  0  0
   49.8661  161.8672   31.3862 H   0  0  0  0  0  0  0  0  0  0  0  0
   48.2879  161.0092   31.3862 H   0  0  0  0  0  0  0  0  0  0  0  0
   48.2073  158.5466   31.1263 H   0  0  0  0  0  0  0  0  0  0  0  0
   49.1847  156.6016   29.9288 H   0  0  0  0  0  0  0  0  0  0  0  0
   53.3631  157.3315   25.3620 H   0  0  0  0  0  0  0  0  0  0  0  0
   54.4767  155.6837   23.8525 H   0  0  0  0  0  0  0  0  0  0  0  0
   54.5992  153.2769   24.5039 H   0  0  0  0  0  0  0  0  0  0  0  0
   53.5090  151.9500   27.5460 H   0  0  0  0  0  0  0  0  0  0  0  0
   50.5640  154.0460   30.5640 H   0  0  0  0  0  0  0  0  0  0  0  0
   52.8615  158.7909   29.3746 H   0  0  0  0  0  0  0  0  0  0  0  0
   52.9817  161.0349   29.9046 H   0  0  0  0  0  0  0  0  0  0  0  0
   51.4864  161.9504   30.4223 H   0  0  0  0  0  0  0  0  0  0  0  0
  1  2  1  0
  2  3  2  0
  3  4  1  0
  4  5  2  0
  5  6  1  0
  6  7  1  0
  7  8  1  0
  8  9  2  0
  9 10  1  0
 10 11  2  0
 11 12  1  0
 12 13  1  0
 12 14  2  0
 14 15  1  0
 15 16  2  0
 15 17  1  0
 17 18  1  0
  5 19  1  0
 19 20  2  0
 20 21  1  0
 21 22  1  0
 20  2  1  0
 17  6  2  0
 14  8  1  0
  1 23  1  0
  1 24  1  0
  1 25  1  0
  3 26  1  0
  4 27  1  0
  9 28  1  0
 10 29  1  0
 11 30  1  0
 13 31  1  0
 18 32  1  0
 19 33  1  0
 21 34  1  0
 21 35  1  0
M  END
>  <meeko>  (1) 
{"is_sidechain": [false], "free_energy": -10.398, "intermolecular_energy": -12.222, "internal_energy": -0.222}

$$$$
cand_045_out
     RDKit          3D

 35 37  0  0  0  0  0  0  0  0999 V2000
   50.0520  161.2230   31.7360 C   0  0  0  0  0  0  0  0  0  0  0  0
   50.5070  160.0110   30.9690 C   0  0  0  0  0  0  0  0  0  0  0  0
   51.7950  159.9950   30.4150 C   0  0  0  0  0  0  0  0  0  0  0  0
   52.2520  158.8870   29.6950 C   0  0  0  0  0  0  0  0  0  0  0  0
   51.4320  157.7700   29.5040 C   0  0  0  0  0  0  0  0  0  0  0  0
   51.9000  156.5760   28.7680 C   0  0  0  0  0  0  0  0  0  0  0  0
   52.4930  156.8890   27.5510 O   0  0  0  0  0  0  0  0  0  0  0  0
   52.9790  155.8740   26.7680 C   0  0  0  0  0  0  0  0  0  0  0  0
   53.5580  156.2340   25.5510 C   0  0  0  0  0  0  0  0  0  0  0  0
   54.0730  155.2490   24.7050 C   0  0  0  0  0  0  0  0  0  0  0  0
   54.0070  153.9040   25.0760 C   0  0  0  0  0  0  0  0  0  0  0  0
   53.4280  153.5480   26.2920 C   0  0  0  0  0  0  0  0  0  0  0  0
   53.3980  152.2130   26.5940 O   0  0  0  0  0  0  0  0  0  0  0  0
   52.9140  154.5340   27.1380 C   0  0  0  0  0  0  0  0  0  0  0  0
   52.2990  154.2030   28.4230 C   0  0  0  0  0  0  0  0  0  0  0  0
   52.2100  153.0430   28.8230 O   0  0  0  0  0  0  0  0  0  0  0  0
   51.7800  155.3220   29.2440 C   0  0  0  0  0  0  0  0  0  0  0  0
   51.2160  154.9980   30.4640 O   0  0  0  0  0  0  0  0  0  0  0  0
   50.1480  157.7830   30.0680 C   0  0  0  0  0  0  0  0  0  0  0  0
   49.6720  158.8890   30.7980 C   0  0  0  0  0  0  0  0  0  0  0  0
   48.2780  158.8490   31.3740 C   0  0  0  0  0  0  0  0  0  0  0  0
   47.3100  159.2330   30.4930 F   0  0  0  0  0  0  0  0  0  0  0  0
   50.1269  161.0234   32.8151 H   0  0  0  0  0  0  0  0  0  0  0  0
   50.6891  162.0815   31.4768 H   0  0  0  0  0  0  0  0  0  0  0  0
   49.0074  161.4501   31.4768 H   0  0  0  0  0  0  0  0  0  0  0  0
   52.4543  160.8653   30.5486 H   0  0  0  0  0  0  0  0  0  0  0  0
   53.2682  158.8938   29.2739 H   0  0  0  0  0  0  0  0  0  0  0  0
   53.6090  157.2929   25.2577 H   0  0  0  0  0  0  0  0  0  0  0  0
   54.5309  155.5327   23.7459 H   0  0  0  0  0  0  0  0  0  0  0  0
   54.4112  153.1278   24.4096 H   0  0  0  0  0  0  0  0  0  0  0  0
   52.7800  151.6510   26.1700 H   0  0  0  0  0  0  0  0  0  0  0  0
   51.4880  154.2240   30.9150 H   0  0  0  0  0  0  0  0  0  0  0  0
   49.4961  156.9068   29.9367 H   0  0  0  0  0  0  0  0  0  0  0  0
   48.0650  157.8193   31.6970 H   0  0  0  0  0  0  0  0  0  0  0  0
   48.2545  159.5640   32.2096 H   0  0  0  0  0  0  0  0  0  0  0  0
  1  2  1  0
  2  3  2  0
  3  4  1  0
  4  5  2  0
  5  6  1  0
  6  7  1  0
  7  8  1  0
  8  9  2  0
  9 10  1  0
 10 11  2  0
 11 12  1  0
 12 13  1  0
 12 14  2  0
 14 15  1  0
 15 16  2  0
 15 17  1  0
 17 18  1  0
  5 19  1  0
 19 20  2  0
 20 21  1  0
 21 22  1  0
 20  2  1  0
 17  6  2  0
 14  8  1  0
  1 23  1  0
  1 24  1  0
  1 25  1  0
  3 26  1  0
  4 27  1  0
  9 28  1  0
 10 29  1  0
 11 30  1  0
 13 31  1  0
 18 32  1  0
 19 33  1  0
 21 34  1  0
 21 35  1  0
M  END
>  <meeko>  (2) 
{"is_sidechain": [false], "free_energy": -10.31, "intermolecular_energy": -12.205, "internal_energy": -0.135}

$$$$
cand_045_out
     RDKit          3D

 35 37  0  0  0  0  0  0  0  0999 V2000
   53.0230  152.5720   26.7470 C   0  0  0  0  0  0  0  0  0  0  0  0
   52.6270  153.8560   27.4230 C   0  0  0  0  0  0  0  0  0  0  0  0
   51.9740  153.8050   28.6630 C   0  0  0  0  0  0  0  0  0  0  0  0
   51.5900  154.9770   29.3210 C   0  0  0  0  0  0  0  0  0  0  0  0
   51.8410  156.2300   28.7540 C   0  0  0  0  0  0  0  0  0  0  0  0
   51.4690  157.4860   29.4410 C   0  0  0  0  0  0  0  0  0  0  0  0
   50.1520  157.4870   29.8860 O   0  0  0  0  0  0  0  0  0  0  0  0
   49.6750  158.5900   30.5470 C   0  0  0  0  0  0  0  0  0  0  0  0
   48.3460  158.5510   30.9680 C   0  0  0  0  0  0  0  0  0  0  0  0
   47.7970  159.6410   31.6470 C   0  0  0  0  0  0  0  0  0  0  0  0
   48.5780  160.7700   31.9040 C   0  0  0  0  0  0  0  0  0  0  0  0
   49.9060  160.8060   31.4820 C   0  0  0  0  0  0  0  0  0  0  0  0
   50.6140  161.9420   31.7670 O   0  0  0  0  0  0  0  0  0  0  0  0
   50.4530  159.7150   30.8030 C   0  0  0  0  0  0  0  0  0  0  0  0
   51.8420  159.7110   30.3440 C   0  0  0  0  0  0  0  0  0  0  0  0
   52.5950  160.6640   30.5380 O   0  0  0  0  0  0  0  0  0  0  0  0
   52.3250  158.5070   29.6300 C   0  0  0  0  0  0  0  0  0  0  0  0
   53.6450  158.5080   29.2140 O   0  0  0  0  0  0  0  0  0  0  0  0
   52.5050  156.2810   27.5180 C   0  0  0  0  0  0  0  0  0  0  0  0
   52.9010  155.1110   26.8430 C   0  0  0  0  0  0  0  0  0  0  0  0
   53.6030  155.2280   25.5130 C   0  0  0  0  0  0  0  0  0  0  0  0
   53.3410  156.3950   24.8560 F   0  0  0  0  0  0  0  0  0  0  0  0
   53.2569  151.8136   27.5087 H   0  0  0  0  0  0  0  0  0  0  0  0
   52.1926  152.2170   26.1190 H   0  0  0  0  0  0  0  0  0  0  0  0
   53.9091  152.7464   26.1190 H   0  0  0  0  0  0  0  0  0  0  0  0
   51.7610  152.8293   29.1242 H   0  0  0  0  0  0  0  0  0  0  0  0
   51.0846  154.9127   30.2959 H   0  0  0  0  0  0  0  0  0  0  0  0
   47.7305  157.6621   30.7654 H   0  0  0  0  0  0  0  0  0  0  0  0
   46.7489  159.6103   31.9796 H   0  0  0  0  0  0  0  0  0  0  0  0
   48.1460  161.6290   32.4383 H   0  0  0  0  0  0  0  0  0  0  0  0
   51.0220  162.4250   31.0760 H   0  0  0  0  0  0  0  0  0  0  0  0
   53.9170  159.0770   28.5220 H   0  0  0  0  0  0  0  0  0  0  0  0
   52.7212  157.2601   27.0656 H   0  0  0  0  0  0  0  0  0  0  0  0
   54.6874  155.1623   25.6856 H   0  0  0  0  0  0  0  0  0  0  0  0
   53.2291  154.4107   24.8788 H   0  0  0  0  0  0  0  0  0  0  0  0
  1  2  1  0
  2  3  2  0
  3  4  1  0
  4  5  2  0
  5  6  1  0
  6  7  1  0
  7  8  1  0
  8  9  2  0
  9 10  1  0
 10 11  2  0
 11 12  1  0
 12 13  1  0
 12 14  2  0
 14 15  1  0
 15 16  2  0
 15 17  1  0
 17 18  1  0
  5 19  1  0
 19 20  2  0
 20 21  1  0
 21 22  1  0
 20  2  1  0
 17  6  2  0
 14  8  1  0
  1 23  1  0
  1 24  1  0
  1 25  1  0
  3 26  1  0
  4 27  1  0
  9 28  1  0
 10 29  1  0
 11 30  1  0
 13 31  1  0
 18 32  1  0
 19 33  1  0
 21 34  1  0
 21 35  1  0
M  END
>  <meeko>  (3) 
{"is_sidechain": [false], "free_energy": -9.885, "intermolecular_energy": -11.721, "internal_energy": -0.119}

$$$$
cand_045_out
     RDKit          3D

 35 37  0  0  0  0  0  0  0  0999 V2000
   51.3530  160.0130   30.5800 C   0  0  0  0  0  0  0  0  0  0  0  0
   51.5910  158.7100   29.8650 C   0  0  0  0  0  0  0  0  0  0  0  0
   52.8120  158.5030   29.2070 C   0  0  0  0  0  0  0  0  0  0  0  0
   53.0690  157.3060   28.5320 C   0  0  0  0  0  0  0  0  0  0  0  0
   52.1110  156.2880   28.4900 C   0  0  0  0  0  0  0  0  0  0  0  0
   52.3670  155.0030   27.8050 C   0  0  0  0  0  0  0  0  0  0  0  0
   53.0560  155.1570   26.6080 O   0  0  0  0  0  0  0  0  0  0  0  0
   53.3650  154.0430   25.8720 C   0  0  0  0  0  0  0  0  0  0  0  0
   54.0500  154.2460   24.6730 C   0  0  0  0  0  0  0  0  0  0  0  0
   54.3970  153.1540   23.8750 C   0  0  0  0  0  0  0  0  0  0  0  0
   54.0580  151.8600   24.2740 C   0  0  0  0  0  0  0  0  0  0  0  0
   53.3740  151.6600   25.4720 C   0  0  0  0  0  0  0  0  0  0  0  0
   53.0750  150.3670   25.8040 O   0  0  0  0  0  0  0  0  0  0  0  0
   53.0290  152.7530   26.2700 C   0  0  0  0  0  0  0  0  0  0  0  0
   52.3120  152.5880   27.5350 C   0  0  0  0  0  0  0  0  0  0  0  0
   51.9850  151.4810   27.9580 O   0  0  0  0  0  0  0  0  0  0  0  0
   51.9880  153.8120   28.3050 C   0  0  0  0  0  0  0  0  0  0  0  0
   51.3250  153.6420   29.5070 O   0  0  0  0  0  0  0  0  0  0  0  0
   50.8940  156.4930   29.1590 C   0  0  0  0  0  0  0  0  0  0  0  0
   50.6190  157.6910   29.8450 C   0  0  0  0  0  0  0  0  0  0  0  0
   49.2890  157.8560   30.5380 C   0  0  0  0  0  0  0  0  0  0  0  0
   48.2160  157.6530   29.7200 F   0  0  0  0  0  0  0  0  0  0  0  0
   51.3835  159.8458   31.6668 H   0  0  0  0  0  0  0  0  0  0  0  0
   52.1343  160.7341   30.2979 H   0  0  0  0  0  0  0  0  0  0  0  0
   50.3672  160.4113   30.2979 H   0  0  0  0  0  0  0  0  0  0  0  0
   53.5775  159.2928   29.2222 H   0  0  0  0  0  0  0  0  0  0  0  0
   54.0362  157.1632   28.0279 H   0  0  0  0  0  0  0  0  0  0  0  0
   54.3163  155.2654   24.3570 H   0  0  0  0  0  0  0  0  0  0  0  0
   54.9382  153.3136   22.9307 H   0  0  0  0  0  0  0  0  0  0  0  0
   54.3300  151.0000   23.6444 H   0  0  0  0  0  0  0  0  0  0  0  0
   53.3430  150.0220   26.6330 H   0  0  0  0  0  0  0  0  0  0  0  0
   51.7330  153.1660   30.2030 H   0  0  0  0  0  0  0  0  0  0  0  0
   50.1354  155.6965   29.1468 H   0  0  0  0  0  0  0  0  0  0  0  0
   49.2365  157.1333   31.3656 H   0  0  0  0  0  0  0  0  0  0  0  0
   49.2351  158.8978   30.8869 H   0  0  0  0  0  0  0  0  0  0  0  0
  1  2  1  0
  2  3  2  0
  3  4  1  0
  4  5  2  0
  5  6  1  0
  6  7  1  0
  7  8  1  0
  8  9  2  0
  9 10  1  0
 10 11  2  0
 11 12  1  0
 12 13  1  0
 12 14  2  0
 14 15  1  0
 15 16  2  0
 15 17  1  0
 17 18  1  0
  5 19  1  0
 19 20  2  0
 20 21  1  0
 21 22  1  0
 20  2  1  0
 17  6  2  0
 14  8  1  0
  1 23  1  0
  1 24  1  0
  1 25  1  0
  3 26  1  0
  4 27  1  0
  9 28  1  0
 10 29  1  0
 11 30  1  0
 13 31  1  0
 18 32  1  0
 19 33  1  0
 21 34  1  0
 21 35  1  0
M  END
>  <meeko>  (4) 
{"is_sidechain": [false], "free_energy": -9.102, "intermolecular_energy": -10.915, "internal_energy": -0.005}

$$$$
cand_045_out
     RDKit          3D

 35 37  0  0  0  0  0  0  0  0999 V2000
   53.5400  152.8850   26.6040 C   0  0  0  0  0  0  0  0  0  0  0  0
   52.9000  154.0370   27.3310 C   0  0  0  0  0  0  0  0  0  0  0  0
   52.2140  153.7950   28.5290 C   0  0  0  0  0  0  0  0  0  0  0  0
   51.6070  154.8400   29.2330 C   0  0  0  0  0  0  0  0  0  0  0  0
   51.6630  156.1530   28.7520 C   0  0  0  0  0  0  0  0  0  0  0  0
   51.0520  157.2790   29.4890 C   0  0  0  0  0  0  0  0  0  0  0  0
   51.9490  158.3110   29.7400 O   0  0  0  0  0  0  0  0  0  0  0  0
   51.5110  159.4230   30.4120 C   0  0  0  0  0  0  0  0  0  0  0  0
   52.4480  160.4300   30.6490 C   0  0  0  0  0  0  0  0  0  0  0  0
   52.0680  161.5900   31.3270 C   0  0  0  0  0  0  0  0  0  0  0  0
   50.7520  161.7430   31.7690 C   0  0  0  0  0  0  0  0  0  0  0  0
   49.8190  160.7360   31.5310 C   0  0  0  0  0  0  0  0  0  0  0  0
   48.5480  160.9510   31.9890 O   0  0  0  0  0  0  0  0  0  0  0  0
   50.2000  159.5760   30.8510 C   0  0  0  0  0  0  0  0  0  0  0  0
   49.2520  158.4960   30.5800 C   0  0  0  0  0  0  0  0  0  0  0  0
   48.0750  158.5580   30.9310 O   0  0  0  0  0  0  0  0  0  0  0  0
   49.7570  157.3060   29.8560 C   0  0  0  0  0  0  0  0  0  0  0  0
   48.8480  156.2980   29.5910 O   0  0  0  0  0  0  0  0  0  0  0  0
   52.3600  156.3950   27.5580 C   0  0  0  0  0  0  0  0  0  0  0  0
   52.9790  155.3550   26.8390 C   0  0  0  0  0  0  0  0  0  0  0  0
   53.7060  155.6760   25.5570 C   0  0  0  0  0  0  0  0  0  0  0  0
   53.0950  156.6370   24.8060 F   0  0  0  0  0  0  0  0  0  0  0  0
   53.9392  152.1664   27.3350 H   0  0  0  0  0  0  0  0  0  0  0  0
   52.7892  152.3871   25.9728 H   0  0  0  0  0  0  0  0  0  0  0  0
   54.3594  153.2595   25.9728 H   0  0  0  0  0  0  0  0  0  0  0  0
   52.1522  152.7691   28.9209 H   0  0  0  0  0  0  0  0  0  0  0  0
   51.0799  154.6276   30.1748 H   0  0  0  0  0  0  0  0  0  0  0  0
   53.4849  160.3099   30.3020 H   0  0  0  0  0  0  0  0  0  0  0  0
   52.8059  162.3842   31.5132 H   0  0  0  0  0  0  0  0  0  0  0  0
   50.4528  162.6565   32.3038 H   0  0  0  0  0  0  0  0  0  0  0  0
   47.9550  160.2310   32.0800 H   0  0  0  0  0  0  0  0  0  0  0  0
   49.1160  155.5400   29.1110 H   0  0  0  0  0  0  0  0  0  0  0  0
   52.4242  157.4239   27.1742 H   0  0  0  0  0  0  0  0  0  0  0  0
   54.7184  156.0242   25.8097 H   0  0  0  0  0  0  0  0  0  0  0  0
   53.7169  154.7557   24.9545 H   0  0  0  0  0  0  0  0  0  0  0  0
  1  2  1  0
  2  3  2  0
  3  4  1  0
  4  5  2  0
  5  6  1  0
  6  7  1  0
  7  8  1  0
  8  9  2  0
  9 10  1  0
 10 11  2  0
 11 12  1  0
 12 13  1  0
 12 14  2  0
 14 15  1  0
 15 16  2  0
 15 17  1  0
 17 18  1  0
  5 19  1  0
 19 20  2  0
 20 21  1  0
 21 22  1  0
 20  2  1  0
 17  6  2  0
 14  8  1  0
  1 23  1  0
  1 24  1  0
  1 25  1  0
  3 26  1  0
  4 27  1  0
  9 28  1  0
 10 29  1  0
 11 30  1  0
 13 31  1  0
 18 32  1  0
 19 33  1  0
 21 34  1  0
 21 35  1  0
M  END
>  <meeko>  (5) 
{"is_sidechain": [false], "free_energy": -8.926, "intermolecular_energy": -10.479, "internal_energy": -0.235}

$$$$
cand_045_out
     RDKit          3D

 35 37  0  0  0  0  0  0  0  0999 V2000
   53.2620  153.8530   26.4030 C   0  0  0  0  0  0  0  0  0  0  0  0
   52.7830  154.9800   27.2780 C   0  0  0  0  0  0  0  0  0  0  0  0
   52.9720  156.3030   26.8550 C   0  0  0  0  0  0  0  0  0  0  0  0
   52.5410  157.3760   27.6410 C   0  0  0  0  0  0  0  0  0  0  0  0
   51.9180  157.1550   28.8730 C   0  0  0  0  0  0  0  0  0  0  0  0
   51.4310  158.2710   29.7120 C   0  0  0  0  0  0  0  0  0  0  0  0
   50.0980  158.1280   30.0810 O   0  0  0  0  0  0  0  0  0  0  0  0
   49.5190  159.0900   30.8660 C   0  0  0  0  0  0  0  0  0  0  0  0
   48.1770  158.9090   31.2050 C   0  0  0  0  0  0  0  0  0  0  0  0
   47.5270  159.8520   32.0030 C   0  0  0  0  0  0  0  0  0  0  0  0
   48.2170  160.9760   32.4620 C   0  0  0  0  0  0  0  0  0  0  0  0
   49.5560  161.1540   32.1230 C   0  0  0  0  0  0  0  0  0  0  0  0
   50.1730  162.2760   32.6060 O   0  0  0  0  0  0  0  0  0  0  0  0
   50.2070  160.2100   31.3240 C   0  0  0  0  0  0  0  0  0  0  0  0
   51.6120  160.3580   30.9460 C   0  0  0  0  0  0  0  0  0  0  0  0
   52.2890  161.3160   31.3150 O   0  0  0  0  0  0  0  0  0  0  0  0
   52.2070  159.3030   30.0930 C   0  0  0  0  0  0  0  0  0  0  0  0
   53.5410  159.4450   29.7540 O   0  0  0  0  0  0  0  0  0  0  0  0
   51.7200  155.8300   29.2910 C   0  0  0  0  0  0  0  0  0  0  0  0
   52.1450  154.7380   28.5110 C   0  0  0  0  0  0  0  0  0  0  0  0
   51.9130  153.3350   29.0160 C   0  0  0  0  0  0  0  0  0  0  0  0
   51.3720  152.5000   28.0820 F   0  0  0  0  0  0  0  0  0  0  0  0
   53.6145  153.0235   27.0336 H   0  0  0  0  0  0  0  0  0  0  0  0
   52.4342  153.5046   25.7679 H   0  0  0  0  0  0  0  0  0  0  0  0
   54.0874  154.2072   25.7679 H   0  0  0  0  0  0  0  0  0  0  0  0
   53.4659  156.4996   25.8920 H   0  0  0  0  0  0  0  0  0  0  0  0
   52.6938  158.4059   27.2860 H   0  0  0  0  0  0  0  0  0  0  0  0
   47.6323  158.0242   30.8437 H   0  0  0  0  0  0  0  0  0  0  0  0
   46.4696  159.7095   32.2707 H   0  0  0  0  0  0  0  0  0  0  0  0
   47.7040  161.7192   33.0900 H   0  0  0  0  0  0  0  0  0  0  0  0
   51.0390  162.2190   32.9590 H   0  0  0  0  0  0  0  0  0  0  0  0
   54.1240  159.8960   30.3320 H   0  0  0  0  0  0  0  0  0  0  0  0
   51.2202  155.6400   30.2523 H   0  0  0  0  0  0  0  0  0  0  0  0
   52.8783  152.9174   29.3381 H   0  0  0  0  0  0  0  0  0  0  0  0
   51.1905  153.4053   29.8425 H   0  0  0  0  0  0  0  0  0  0  0  0
  1  2  1  0
  2  3  2  0
  3  4  1  0
  4  5  2  0
  5  6  1  0
  6  7  1  0
  7  8  1  0
  8  9  2  0
  9 10  1  0
 10 11  2  0
 11 12  1  0
 12 13  1  0
 12 14  2  0
 14 15  1  0
 15 16  2  0
 15 17  1  0
 17 18  1  0
  5 19  1  0
 19 20  2  0
 20 21  1  0
 21 22  1  0
 20  2  1  0
 17  6  2  0
 14  8  1  0
  1 23  1  0
  1 24  1  0
  1 25  1  0
  3 26  1  0
  4 27  1  0
  9 28  1  0
 10 29  1  0
 11 30  1  0
 13 31  1  0
 18 32  1  0
 19 33  1  0
 21 34  1  0
 21 35  1  0
M  END
>  <meeko>  (6) 
{"is_sidechain": [false], "free_energy": -8.73, "intermolecular_energy": -10.498, "internal_energy": 0.015}

$$$$
cand_045_out
     RDKit          3D

 35 37  0  0  0  0  0  0  0  0999 V2000
   49.2230  158.3530   31.1700 C   0  0  0  0  0  0  0  0  0  0  0  0
   50.0290  157.5360   30.1970 C   0  0  0  0  0  0  0  0  0  0  0  0
   49.5460  156.2850   29.7880 C   0  0  0  0  0  0  0  0  0  0  0  0
   50.2670  155.4980   28.8850 C   0  0  0  0  0  0  0  0  0  0  0  0
   51.4920  155.9370   28.3730 C   0  0  0  0  0  0  0  0  0  0  0  0
   52.2630  155.1350   27.3980 C   0  0  0  0  0  0  0  0  0  0  0  0
   51.9690  153.7780   27.4630 O   0  0  0  0  0  0  0  0  0  0  0  0
   52.6090  152.9190   26.6080 C   0  0  0  0  0  0  0  0  0  0  0  0
   52.2900  151.5640   26.7140 C   0  0  0  0  0  0  0  0  0  0  0  0
   52.9050  150.6350   25.8720 C   0  0  0  0  0  0  0  0  0  0  0  0
   53.8400  151.0600   24.9260 C   0  0  0  0  0  0  0  0  0  0  0  0
   54.1560  152.4130   24.8220 C   0  0  0  0  0  0  0  0  0  0  0  0
   55.0790  152.7600   23.8730 O   0  0  0  0  0  0  0  0  0  0  0  0
   53.5400  153.3420   25.6640 C   0  0  0  0  0  0  0  0  0  0  0  0
   53.8430  154.7710   25.5880 C   0  0  0  0  0  0  0  0  0  0  0  0
   54.6490  155.2230   24.7770 O   0  0  0  0  0  0  0  0  0  0  0  0
   53.1380  155.6720   26.5280 C   0  0  0  0  0  0  0  0  0  0  0  0
   53.4210  157.0230   26.4360 O   0  0  0  0  0  0  0  0  0  0  0  0
   51.9690  157.1940   28.7750 C   0  0  0  0  0  0  0  0  0  0  0  0
   51.2550  158.0010   29.6810 C   0  0  0  0  0  0  0  0  0  0  0  0
   51.8220  159.3400   30.0820 C   0  0  0  0  0  0  0  0  0  0  0  0
   51.0520  160.3990   29.6970 F   0  0  0  0  0  0  0  0  0  0  0  0
   49.4976  158.0747   32.1982 H   0  0  0  0  0  0  0  0  0  0  0  0
   49.4305  159.4216   31.0116 H   0  0  0  0  0  0  0  0  0  0  0  0
   48.1517  158.1600   31.0116 H   0  0  0  0  0  0  0  0  0  0  0  0
   48.5872  155.9179   30.1828 H   0  0  0  0  0  0  0  0  0  0  0  0
   49.8660  154.5222   28.5737 H   0  0  0  0  0  0  0  0  0  0  0  0
   51.5548  151.2284   27.4602 H   0  0  0  0  0  0  0  0  0  0  0  0
   52.6526  149.5675   25.9541 H   0  0  0  0  0  0  0  0  0  0  0  0
   54.3261  150.3281   24.2642 H   0  0  0  0  0  0  0  0  0  0  0  0
   55.7010  152.1280   23.5710 H   0  0  0  0  0  0  0  0  0  0  0  0
   53.2790  157.4770   25.6290 H   0  0  0  0  0  0  0  0  0  0  0  0
   52.9255  157.5582   28.3718 H   0  0  0  0  0  0  0  0  0  0  0  0
   51.9199  159.3618   31.1774 H   0  0  0  0  0  0  0  0  0  0  0  0
   52.7910  159.4447   29.5721 H   0  0  0  0  0  0  0  0  0  0  0  0
  1  2  1  0
  2  3  2  0
  3  4  1  0
  4  5  2  0
  5  6  1  0
  6  7  1  0
  7  8  1  0
  8  9  2  0
  9 10  1  0
 10 11  2  0
 11 12  1  0
 12 13  1  0
 12 14  2  0
 14 15  1  0
 15 16  2  0
 15 17  1  0
 17 18  1  0
  5 19  1  0
 19 20  2  0
 20 21  1  0
 21 22  1  0
 20  2  1  0
 17  6  2  0
 14  8  1  0
  1 23  1  0
  1 24  1  0
  1 25  1  0
  3 26  1  0
  4 27  1  0
  9 28  1  0
 10 29  1  0
 11 30  1  0
 13 31  1  0
 18 32  1  0
 19 33  1  0
 21 34  1  0
 21 35  1  0
M  END
>  <meeko>  (7) 
{"is_sidechain": [false], "free_energy": -8.407, "intermolecular_energy": -10.33, "internal_energy": 0.227}

$$$$
cand_045_out
     RDKit          3D

 35 37  0  0  0  0  0  0  0  0999 V2000
   53.6410  153.6900   25.9980 C   0  0  0  0  0  0  0  0  0  0  0  0
   53.0000  154.6970   26.9130 C   0  0  0  0  0  0  0  0  0  0  0  0
   53.1780  156.0640   26.6590 C   0  0  0  0  0  0  0  0  0  0  0  0
   52.5990  157.0300   27.4880 C   0  0  0  0  0  0  0  0  0  0  0  0
   51.8320  156.6550   28.5950 C   0  0  0  0  0  0  0  0  0  0  0  0
   51.1870  157.6550   29.4730 C   0  0  0  0  0  0  0  0  0  0  0  0
   51.9980  158.7560   29.7240 O   0  0  0  0  0  0  0  0  0  0  0  0
   51.5200  159.7650   30.5200 C   0  0  0  0  0  0  0  0  0  0  0  0
   52.3710  160.8460   30.7520 C   0  0  0  0  0  0  0  0  0  0  0  0
   51.9470  161.9080   31.5530 C   0  0  0  0  0  0  0  0  0  0  0  0
   50.6720  161.8880   32.1230 C   0  0  0  0  0  0  0  0  0  0  0  0
   49.8240  160.8080   31.8890 C   0  0  0  0  0  0  0  0  0  0  0  0
   48.5890  160.8530   32.4760 O   0  0  0  0  0  0  0  0  0  0  0  0
   50.2490  159.7460   31.0870 C   0  0  0  0  0  0  0  0  0  0  0  0
   49.3910  158.5930   30.8150 C   0  0  0  0  0  0  0  0  0  0  0  0
   48.2530  158.5050   31.2750 O   0  0  0  0  0  0  0  0  0  0  0  0
   49.9380  157.5180   29.9560 C   0  0  0  0  0  0  0  0  0  0  0  0
   49.1110  156.4400   29.6930 O   0  0  0  0  0  0  0  0  0  0  0  0
   51.6450  155.2860   28.8420 C   0  0  0  0  0  0  0  0  0  0  0  0
   52.2190  154.3000   28.0170 C   0  0  0  0  0  0  0  0  0  0  0  0
   51.9900  152.8440   28.3380 C   0  0  0  0  0  0  0  0  0  0  0  0
   51.5310  152.1160   27.2790 F   0  0  0  0  0  0  0  0  0  0  0  0
   54.1361  152.9123   26.5980 H   0  0  0  0  0  0  0  0  0  0  0  0
   52.8702  153.2283   25.3634 H   0  0  0  0  0  0  0  0  0  0  0  0
   54.3855  154.1929   25.3634 H   0  0  0  0  0  0  0  0  0  0  0  0
   53.7814  156.3812   25.7957 H   0  0  0  0  0  0  0  0  0  0  0  0
   52.7488  158.0970   27.2665 H   0  0  0  0  0  0  0  0  0  0  0  0
   53.3755  160.8615   30.3040 H   0  0  0  0  0  0  0  0  0  0  0  0
   52.6174  162.7609   31.7353 H   0  0  0  0  0  0  0  0  0  0  0  0
   50.3381  162.7237   32.7556 H   0  0  0  0  0  0  0  0  0  0  0  0
   48.4490  160.4380   33.3040 H   0  0  0  0  0  0  0  0  0  0  0  0
   48.5060  156.1460   30.3440 H   0  0  0  0  0  0  0  0  0  0  0  0
   51.0341  154.9754   29.7025 H   0  0  0  0  0  0  0  0  0  0  0  0
   52.9427  152.4078   28.6728 H   0  0  0  0  0  0  0  0  0  0  0  0
   51.2144  152.8039   29.1170 H   0  0  0  0  0  0  0  0  0  0  0  0
  1  2  1  0
  2  3  2  0
  3  4  1  0
  4  5  2  0
  5  6  1  0
  6  7  1  0
  7  8  1  0
  8  9  2  0
  9 10  1  0
 10 11  2  0
 11 12  1  0
 12 13  1  0
 12 14  2  0
 14 15  1  0
 15 16  2  0
 15 17  1  0
 17 18  1  0
  5 19  1  0
 19 20  2  0
 20 21  1  0
 21 22  1  0
 20  2  1  0
 17  6  2  0
 14  8  1  0
  1 23  1  0
  1 24  1  0
  1 25  1  0
  3 26  1  0
  4 27  1  0
  9 28  1  0
 10 29  1  0
 11 30  1  0
 13 31  1  0
 18 32  1  0
 19 33  1  0
 21 34  1  0
 21 35  1  0
M  END
>  <meeko>  (8) 
{"is_sidechain": [false], "free_energy": -8.051, "intermolecular_energy": -9.856, "internal_energy": 0.171}

$$$$
