cand_012_out
     RDKit          3D

 40 42  0  0  0  0  0  0  0  0999 V2000
   49.2380  160.1840   33.0730 C   0  0  0  0  0  0  0  0  0  0  0  0
   49.3990  160.4880   31.6480 N   0  0  0  0  0  0  0  0  0  0  0  0
   48.1830  160.9930   31.0020 C   0  0  0  0  0  0  0  0  0  0  0  0
   49.9930  159.4420   30.9160 C   0  0  0  0  0  0  0  0  0  0  0  0
   49.3030  158.2520   30.6340 C   0  0  0  0  0  0  0  0  0  0  0  0
   49.8990  157.2230   29.8990 C   0  0  0  0  0  0  0  0  0  0  0  0
   51.2020  157.3560   29.4130 C   0  0  0  0  0  0  0  0  0  0  0  0
   51.8670  156.2740   28.6560 C   0  0  0  0  0  0  0  0  0  0  0  0
   52.4030  156.7100   27.4490 O   0  0  0  0  0  0  0  0  0  0  0  0
   53.0460  155.8070   26.6430 C   0  0  0  0  0  0  0  0  0  0  0  0
   53.5780  156.2910   25.4470 C   0  0  0  0  0  0  0  0  0  0  0  0
   54.2460  155.4220   24.5810 C   0  0  0  0  0  0  0  0  0  0  0  0
   54.3810  154.0720   24.9090 C   0  0  0  0  0  0  0  0  0  0  0  0
   53.8490  153.5920   26.1030 C   0  0  0  0  0  0  0  0  0  0  0  0
   54.0170  152.2590   26.3620 O   0  0  0  0  0  0  0  0  0  0  0  0
   53.1820  154.4610   26.9700 C   0  0  0  0  0  0  0  0  0  0  0  0
   52.6070  153.9980   28.2340 C   0  0  0  0  0  0  0  0  0  0  0  0
   52.6790  152.8240   28.5910 O   0  0  0  0  0  0  0  0  0  0  0  0
   51.9250  155.0000   29.0850 C   0  0  0  0  0  0  0  0  0  0  0  0
   51.3720  154.5490   30.2690 O   0  0  0  0  0  0  0  0  0  0  0  0
   51.8970  158.5400   29.6990 C   0  0  0  0  0  0  0  0  0  0  0  0
   51.3080  159.5870   30.4400 C   0  0  0  0  0  0  0  0  0  0  0  0
   52.0980  160.8420   30.7170 C   0  0  0  0  0  0  0  0  0  0  0  0
   51.5770  161.9590   30.1330 F   0  0  0  0  0  0  0  0  0  0  0  0
   53.3830  160.7700   30.2440 F   0  0  0  0  0  0  0  0  0  0  0  0
   52.2350  161.1240   32.0450 F   0  0  0  0  0  0  0  0  0  0  0  0
   49.6696  160.9989   33.6728 H   0  0  0  0  0  0  0  0  0  0  0  0
   48.1681  160.0829   33.3077 H   0  0  0  0  0  0  0  0  0  0  0  0
   49.7555  159.2422   33.3077 H   0  0  0  0  0  0  0  0  0  0  0  0
   47.4571  161.2944   31.7716 H   0  0  0  0  0  0  0  0  0  0  0  0
   48.4344  161.8611   30.3750 H   0  0  0  0  0  0  0  0  0  0  0  0
   47.7455  160.2022   30.3750 H   0  0  0  0  0  0  0  0  0  0  0  0
   48.2728  158.1269   30.9988 H   0  0  0  0  0  0  0  0  0  0  0  0
   49.3361  156.2989   29.7012 H   0  0  0  0  0  0  0  0  0  0  0  0
   53.4715  157.3545   25.1868 H   0  0  0  0  0  0  0  0  0  0  0  0
   54.6666  155.8024   23.6385 H   0  0  0  0  0  0  0  0  0  0  0  0
   54.9066  153.3887   24.2257 H   0  0  0  0  0  0  0  0  0  0  0  0
   54.2150  151.9720   27.2320 H   0  0  0  0  0  0  0  0  0  0  0  0
   50.5270  154.1420   30.2670 H   0  0  0  0  0  0  0  0  0  0  0  0
   52.9289  158.6558   29.3361 H   0  0  0  0  0  0  0  0  0  0  0  0
  1  2  1  0
  2  3  1  0
  2  4  1  0
  4  5  2  0
  5  6  1  0
  6  7  2  0
  7  8  1  0
  8  9  1  0
  9 10  1  0
 10 11  2  0
 11 12  1  0
 12 13  2  0
 13 14  1  0
 14 15  1  0
 14 16  2  0
 16 17  1  0
 17 18  2  0
 17 19  1  0
 19 20  1  0
  7 21  1  0
 21 22  2  0
 22 23  1  0
 23 24  1  0
 23 25  1  0
 23 26  1  0
 22  4  1  0
 19  8  2  0
 16 10  1  0
  1 27  1  0
  1 28  1  0
  1 29  1  0
  3 30  1  0
  3 31  1  0
  3 32  1  0
  5 33  1  0
  6 34  1  0
 11 35  1  0
 12 36  1  0
 13 37  1  0
 15 38  1  0
 20 39  1  0
 21 40  1  0
M  END
>  <meeko>  (1) 
{"is_sidechain": [false], "free_energy": -10.388, "intermolecular_energy": -12.817, "internal_energy": -0.371}

$$$$
cand_012_out
     RDKit          3D

 40 42  0  0  0  0  0  0  0  0999 V2000
   52.0620  151.7570   26.5970 C   0  0  0  0  0  0  0  0  0  0  0  0
   52.9390  152.9140   26.3960 N   0  0  0  0  0  0  0  0  0  0  0  0
   54.3680  152.6130   26.5320 C   0  0  0  0  0  0  0  0  0  0  0  0
   52.5610  154.0400   27.1510 C   0  0  0  0  0  0  0  0  0  0  0  0
   52.0190  153.9200   28.4400 C   0  0  0  0  0  0  0  0  0  0  0  0
   51.6550  155.0460   29.1850 C   0  0  0  0  0  0  0  0  0  0  0  0
   51.8310  156.3310   28.6660 C   0  0  0  0  0  0  0  0  0  0  0  0
   51.4310  157.5390   29.4190 C   0  0  0  0  0  0  0  0  0  0  0  0
   50.0910  157.5270   29.7870 O   0  0  0  0  0  0  0  0  0  0  0  0
   49.5850  158.5910   30.4890 C   0  0  0  0  0  0  0  0  0  0  0  0
   48.2380  158.5300   30.8490 C   0  0  0  0  0  0  0  0  0  0  0  0
   47.6610  159.5820   31.5640 C   0  0  0  0  0  0  0  0  0  0  0  0
   48.4300  160.6920   31.9200 C   0  0  0  0  0  0  0  0  0  0  0  0
   49.7740  160.7490   31.5590 C   0  0  0  0  0  0  0  0  0  0  0  0
   50.4680  161.8660   31.9390 O   0  0  0  0  0  0  0  0  0  0  0  0
   50.3510  159.6970   30.8440 C   0  0  0  0  0  0  0  0  0  0  0  0
   51.7590  159.7170   30.4450 C   0  0  0  0  0  0  0  0  0  0  0  0
   52.4990  160.6610   30.7150 O   0  0  0  0  0  0  0  0  0  0  0  0
   52.2750  158.5500   29.6940 C   0  0  0  0  0  0  0  0  0  0  0  0
   53.6030  158.5860   29.3080 O   0  0  0  0  0  0  0  0  0  0  0  0
   52.3650  156.4560   27.3750 C   0  0  0  0  0  0  0  0  0  0  0  0
   52.7370  155.3280   26.6130 C   0  0  0  0  0  0  0  0  0  0  0  0
   53.3100  155.5180   25.2300 C   0  0  0  0  0  0  0  0  0  0  0  0
   54.6650  155.3660   25.1720 F   0  0  0  0  0  0  0  0  0  0  0  0
   53.0800  156.7740   24.7330 F   0  0  0  0  0  0  0  0  0  0  0  0
   52.7830  154.6750   24.2960 F   0  0  0  0  0  0  0  0  0  0  0  0
   51.9285  151.5809   27.6746 H   0  0  0  0  0  0  0  0  0  0  0  0
   51.0839  151.9534   26.1336 H   0  0  0  0  0  0  0  0  0  0  0  0
   52.5154  150.8683   26.1336 H   0  0  0  0  0  0  0  0  0  0  0  0
   54.6311  152.5576   27.5986 H   0  0  0  0  0  0  0  0  0  0  0  0
   54.5872  151.6490   26.0497 H   0  0  0  0  0  0  0  0  0  0  0  0
   54.9574  153.4067   26.0497 H   0  0  0  0  0  0  0  0  0  0  0  0
   51.8775  152.9189   28.8735 H   0  0  0  0  0  0  0  0  0  0  0  0
   51.2258  154.9187   30.1898 H   0  0  0  0  0  0  0  0  0  0  0  0
   47.6320  157.6553   30.5702 H   0  0  0  0  0  0  0  0  0  0  0  0
   46.5991  159.5361   31.8472 H   0  0  0  0  0  0  0  0  0  0  0  0
   47.9753  161.5195   32.4843 H   0  0  0  0  0  0  0  0  0  0  0  0
   50.5460  162.0820   32.8470 H   0  0  0  0  0  0  0  0  0  0  0  0
   54.1630  159.2690   29.6220 H   0  0  0  0  0  0  0  0  0  0  0  0
   52.4973  157.4599   26.9452 H   0  0  0  0  0  0  0  0  0  0  0  0
  1  2  1  0
  2  3  1  0
  2  4  1  0
  4  5  2  0
  5  6  1  0
  6  7  2  0
  7  8  1  0
  8  9  1  0
  9 10  1  0
 10 11  2  0
 11 12  1  0
 12 13  2  0
 13 14  1  0
 14 15  1  0
 14 16  2  0
 16 17  1  0
 17 18  2  0
 17 19  1  0
 19 20  1  0
  7 21  1  0
 21 22  2  0
 22 23  1  0
 23 24  1  0
 23 25  1  0
 23 26  1  0
 22  4  1  0
 19  8  2  0
 16 10  1  0
  1 27  1  0
  1 28  1  0
  1 29  1  0
  3 30  1  0
  3 31  1  0
  3 32  1  0
  5 33  1  0
  6 34  1  0
 11 35  1  0
 12 36  1  0
 13 37  1  0
 15 38  1  0
 20 39  1  0
 21 40  1  0
M  END
>  <meeko>  (2) 
{"is_sidechain": [false], "free_energy": -10.083, "intermolecular_energy": -12.754, "internal_energy": -0.058}

$$$$
cand_012_out
     RDKit          3D

 40 42  0  0  0  0  0  0  0  0999 V2000
   51.6510  161.8870   30.8540 C   0  0  0  0  0  0  0  0  0  0  0  0
   50.7170  160.7840   31.0970 N   0  0  0  0  0  0  0  0  0  0  0  0
   50.4160  160.5560   32.5150 C   0  0  0  0  0  0  0  0  0  0  0  0
   51.0720  159.5940   30.4340 C   0  0  0  0  0  0  0  0  0  0  0  0
   52.3960  159.3270   30.0490 C   0  0  0  0  0  0  0  0  0  0  0  0
   52.7380  158.1380   29.3980 C   0  0  0  0  0  0  0  0  0  0  0  0
   51.7680  157.1720   29.1200 C   0  0  0  0  0  0  0  0  0  0  0  0
   52.0960  155.9180   28.4090 C   0  0  0  0  0  0  0  0  0  0  0  0
   52.6160  156.1370   27.1390 O   0  0  0  0  0  0  0  0  0  0  0  0
   52.9610  155.0570   26.3670 C   0  0  0  0  0  0  0  0  0  0  0  0
   53.4900  155.3230   25.1040 C   0  0  0  0  0  0  0  0  0  0  0  0
   53.8610  154.2670   24.2680 C   0  0  0  0  0  0  0  0  0  0  0  0
   53.7020  152.9480   24.6950 C   0  0  0  0  0  0  0  0  0  0  0  0
   53.1740  152.6850   25.9550 C   0  0  0  0  0  0  0  0  0  0  0  0
   53.0450  151.3690   26.3090 O   0  0  0  0  0  0  0  0  0  0  0  0
   52.8040  153.7410   26.7920 C   0  0  0  0  0  0  0  0  0  0  0  0
   52.2440  153.5090   28.1240 C   0  0  0  0  0  0  0  0  0  0  0  0
   52.0680  152.3760   28.5690 O   0  0  0  0  0  0  0  0  0  0  0  0
   51.8890  154.6960   28.9350 C   0  0  0  0  0  0  0  0  0  0  0  0
   51.3460  154.4660   30.1860 O   0  0  0  0  0  0  0  0  0  0  0  0
   50.4430  157.4380   29.4950 C   0  0  0  0  0  0  0  0  0  0  0  0
   50.0830  158.6340   30.1530 C   0  0  0  0  0  0  0  0  0  0  0  0
   48.6430  158.8690   30.5390 C   0  0  0  0  0  0  0  0  0  0  0  0
   48.3620  158.5460   31.8340 F   0  0  0  0  0  0  0  0  0  0  0  0
   47.7700  158.1190   29.7960 F   0  0  0  0  0  0  0  0  0  0  0  0
   48.2300  160.1570   30.3600 F   0  0  0  0  0  0  0  0  0  0  0  0
   51.9958  162.2942   31.8159 H   0  0  0  0  0  0  0  0  0  0  0  0
   52.5145  161.5169   30.2818 H   0  0  0  0  0  0  0  0  0  0  0  0
   51.1437  162.6777   30.2818 H   0  0  0  0  0  0  0  0  0  0  0  0
   51.1397  161.1041   33.1362 H   0  0  0  0  0  0  0  0  0  0  0  0
   49.3991  160.9124   32.7359 H   0  0  0  0  0  0  0  0  0  0  0  0
   50.4837  159.4805   32.7359 H   0  0  0  0  0  0  0  0  0  0  0  0
   53.1797  160.0683   30.2640 H   0  0  0  0  0  0  0  0  0  0  0  0
   53.7824  157.9612   29.1014 H   0  0  0  0  0  0  0  0  0  0  0  0
   53.6148  156.3626   24.7668 H   0  0  0  0  0  0  0  0  0  0  0  0
   54.2789  154.4755   23.2721 H   0  0  0  0  0  0  0  0  0  0  0  0
   53.9939  152.1170   24.0360 H   0  0  0  0  0  0  0  0  0  0  0  0
   52.2340  150.9230   26.1680 H   0  0  0  0  0  0  0  0  0  0  0  0
   50.5070  154.8220   30.4040 H   0  0  0  0  0  0  0  0  0  0  0  0
   49.6636  156.6950   29.2704 H   0  0  0  0  0  0  0  0  0  0  0  0
  1  2  1  0
  2  3  1  0
  2  4  1  0
  4  5  2  0
  5  6  1  0
  6  7  2  0
  7  8  1  0
  8  9  1  0
  9 10  1  0
 10 11  2  0
 11 12  1  0
 12 13  2  0
 13 14  1  0
 14 15  1  0
 14 16  2  0
 16 17  1  0
 17 18  2  0
 17 19  1  0
 19 20  1  0
  7 21  1  0
 21 22  2  0
 22 23  1  0
 23 24  1  0
 23 25  1  0
 23 26  1  0
 22  4  1  0
 19  8  2  0
 16 10  1  0
  1 27  1  0
  1 28  1  0
  1 29  1  0
  3 30  1  0
  3 31  1  0
  3 32  1  0
  5 33  1  0
  6 34  1  0
 11 35  1  0
 12 36  1  0
 13 37  1  0
 15 38  1  0
 20 39  1  0
 21 40  1  0
M  END
>  <meeko>  (3) 
{"is_sidechain": [false], "free_energy": -9.204, "intermolecular_energy": -12.101, "internal_energy": 0.374}

$$$$
cand_012_out
     RDKit          3D

 40 42  0  0  0  0  0  0  0  0999 V2000
   52.4550  151.6790   26.3430 C   0  0  0  0  0  0  0  0  0  0  0  0
   53.2840  152.8880   26.3490 N   0  0  0  0  0  0  0  0  0  0  0  0
   54.6930  152.6470   26.6780 C   0  0  0  0  0  0  0  0  0  0  0  0
   52.7360  153.9400   27.1070 C   0  0  0  0  0  0  0  0  0  0  0  0
   52.1740  153.7230   28.3750 C   0  0  0  0  0  0  0  0  0  0  0  0
   51.6400  154.7770   29.1240 C   0  0  0  0  0  0  0  0  0  0  0  0
   51.6600  156.0840   28.6300 C   0  0  0  0  0  0  0  0  0  0  0  0
   51.0790  157.2130   29.3870 C   0  0  0  0  0  0  0  0  0  0  0  0
   51.9930  158.2350   29.6190 O   0  0  0  0  0  0  0  0  0  0  0  0
   51.5860  159.3440   30.3150 C   0  0  0  0  0  0  0  0  0  0  0  0
   52.5330  160.3500   30.5140 C   0  0  0  0  0  0  0  0  0  0  0  0
   52.1840  161.5060   31.2160 C   0  0  0  0  0  0  0  0  0  0  0  0
   50.8890  161.6560   31.7180 C   0  0  0  0  0  0  0  0  0  0  0  0
   49.9470  160.6500   31.5180 C   0  0  0  0  0  0  0  0  0  0  0  0
   48.6990  160.8620   32.0360 O   0  0  0  0  0  0  0  0  0  0  0  0
   50.2960  159.4950   30.8150 C   0  0  0  0  0  0  0  0  0  0  0  0
   49.3370  158.4140   30.5830 C   0  0  0  0  0  0  0  0  0  0  0  0
   48.1810  158.4680   30.9980 O   0  0  0  0  0  0  0  0  0  0  0  0
   49.8050  157.2330   29.8220 C   0  0  0  0  0  0  0  0  0  0  0  0
   48.8960  156.2110   29.6220 O   0  0  0  0  0  0  0  0  0  0  0  0
   52.2130  156.3040   27.3610 C   0  0  0  0  0  0  0  0  0  0  0  0
   52.7560  155.2490   26.5940 C   0  0  0  0  0  0  0  0  0  0  0  0
   53.3430  155.5400   25.2350 C   0  0  0  0  0  0  0  0  0  0  0  0
   54.7040  155.4520   25.1940 F   0  0  0  0  0  0  0  0  0  0  0  0
   53.0640  156.8100   24.8020 F   0  0  0  0  0  0  0  0  0  0  0  0
   52.8700  154.7270   24.2470 F   0  0  0  0  0  0  0  0  0  0  0  0
   52.2452  151.3731   27.3786 H   0  0  0  0  0  0  0  0  0  0  0  0
   51.5081  151.8863   25.8230 H   0  0  0  0  0  0  0  0  0  0  0  0
   52.9896  150.8704   25.8230 H   0  0  0  0  0  0  0  0  0  0  0  0
   54.8159  152.6260   27.7709 H   0  0  0  0  0  0  0  0  0  0  0  0
   55.0084  151.6819   26.2549 H   0  0  0  0  0  0  0  0  0  0  0  0
   55.3113  153.4524   26.2549 H   0  0  0  0  0  0  0  0  0  0  0  0
   52.1531  152.7037   28.7879 H   0  0  0  0  0  0  0  0  0  0  0  0
   51.2000  154.5749   30.1117 H   0  0  0  0  0  0  0  0  0  0  0  0
   53.5527  160.2326   30.1185 H   0  0  0  0  0  0  0  0  0  0  0  0
   52.9297  162.2991   31.3737 H   0  0  0  0  0  0  0  0  0  0  0  0
   50.6139  162.5668   32.2701 H   0  0  0  0  0  0  0  0  0  0  0  0
   48.5930  161.0220   32.9540 H   0  0  0  0  0  0  0  0  0  0  0  0
   48.3560  156.2080   28.8560 H   0  0  0  0  0  0  0  0  0  0  0  0
   52.2245  157.3249   26.9515 H   0  0  0  0  0  0  0  0  0  0  0  0
  1  2  1  0
  2  3  1  0
  2  4  1  0
  4  5  2  0
  5  6  1  0
  6  7  2  0
  7  8  1  0
  8  9  1  0
  9 10  1  0
 10 11  2  0
 11 12  1  0
 12 13  2  0
 13 14  1  0
 14 15  1  0
 14 16  2  0
 16 17  1  0
 17 18  2  0
 17 19  1  0
 19 20  1  0
  7 21  1  0
 21 22  2  0
 22 23  1  0
 23 24  1  0
 23 25  1  0
 23 26  1  0
 22  4  1  0
 19  8  2  0
 16 10  1  0
  1 27  1  0
  1 28  1  0
  1 29  1  0
  3 30  1  0
  3 31  1  0
  3 32  1  0
  5 33  1  0
  6 34  1  0
 11 35  1  0
 12 36  1  0
 13 37  1  0
 15 38  1  0
 20 39  1  0
 21 40  1  0
M  END
>  <meeko>  (4) 
{"is_sidechain": [false], "free_energy": -8.786, "intermolecular_energy": -10.945, "internal_energy": -0.267}

$$$$
cand_012_out
     RDKit          3D

 40 42  0  0  0  0  0  0  0  0999 V2000
   54.4180  154.6790   25.3210 C   0  0  0  0  0  0  0  0  0  0  0  0
   53.3760  154.2440   26.2560 N   0  0  0  0  0  0  0  0  0  0  0  0
   52.2780  153.5010   25.6260 C   0  0  0  0  0  0  0  0  0  0  0  0
   52.9060  155.2750   27.0910 C   0  0  0  0  0  0  0  0  0  0  0  0
   52.9710  156.6240   26.7080 C   0  0  0  0  0  0  0  0  0  0  0  0
   52.4940  157.6410   27.5410 C   0  0  0  0  0  0  0  0  0  0  0  0
   51.9270  157.3390   28.7810 C   0  0  0  0  0  0  0  0  0  0  0  0
   51.4380  158.3930   29.6950 C   0  0  0  0  0  0  0  0  0  0  0  0
   50.0930  158.2500   30.0140 O   0  0  0  0  0  0  0  0  0  0  0  0
   49.5080  159.1650   30.8520 C   0  0  0  0  0  0  0  0  0  0  0  0
   48.1590  158.9750   31.1560 C   0  0  0  0  0  0  0  0  0  0  0  0
   47.5040  159.8720   32.0030 C   0  0  0  0  0  0  0  0  0  0  0  0
   48.1960  160.9560   32.5460 C   0  0  0  0  0  0  0  0  0  0  0  0
   49.5420  161.1420   32.2410 C   0  0  0  0  0  0  0  0  0  0  0  0
   50.1590  162.2250   32.8070 O   0  0  0  0  0  0  0  0  0  0  0  0
   50.1980  160.2450   31.3950 C   0  0  0  0  0  0  0  0  0  0  0  0
   51.6110  160.4050   31.0480 C   0  0  0  0  0  0  0  0  0  0  0  0
   52.2870  161.3360   31.4800 O   0  0  0  0  0  0  0  0  0  0  0  0
   52.2130  159.3960   30.1460 C   0  0  0  0  0  0  0  0  0  0  0  0
   53.5450  159.5650   29.8130 O   0  0  0  0  0  0  0  0  0  0  0  0
   51.8660  155.9930   29.1710 C   0  0  0  0  0  0  0  0  0  0  0  0
   52.3440  154.9560   28.3400 C   0  0  0  0  0  0  0  0  0  0  0  0
   52.2530  153.5240   28.8050 C   0  0  0  0  0  0  0  0  0  0  0  0
   51.3940  152.7610   28.0690 F   0  0  0  0  0  0  0  0  0  0  0  0
   51.7960  153.4170   30.0930 F   0  0  0  0  0  0  0  0  0  0  0  0
   53.4500  152.8700   28.8090 F   0  0  0  0  0  0  0  0  0  0  0  0
   55.2890  155.0426   25.8859 H   0  0  0  0  0  0  0  0  0  0  0  0
   54.7194  153.8316   24.6878 H   0  0  0  0  0  0  0  0  0  0  0  0
   54.0274  155.4892   24.6878 H   0  0  0  0  0  0  0  0  0  0  0  0
   51.6351  153.0659   26.4053 H   0  0  0  0  0  0  0  0  0  0  0  0
   51.6847  154.1840   25.0003 H   0  0  0  0  0  0  0  0  0  0  0  0
   52.6914  152.6963   25.0003 H   0  0  0  0  0  0  0  0  0  0  0  0
   53.4062  156.8865   25.7324 H   0  0  0  0  0  0  0  0  0  0  0  0
   52.5661  158.6895   27.2162 H   0  0  0  0  0  0  0  0  0  0  0  0
   47.6129  158.1207   30.7295 H   0  0  0  0  0  0  0  0  0  0  0  0
   46.4407  159.7239   32.2427 H   0  0  0  0  0  0  0  0  0  0  0  0
   47.6793  161.6616   33.2132 H   0  0  0  0  0  0  0  0  0  0  0  0
   50.5850  162.8580   32.2630 H   0  0  0  0  0  0  0  0  0  0  0  0
   54.0940  158.8150   29.6850 H   0  0  0  0  0  0  0  0  0  0  0  0
   51.4343  155.7384   30.1502 H   0  0  0  0  0  0  0  0  0  0  0  0
  1  2  1  0
  2  3  1  0
  2  4  1  0
  4  5  2  0
  5  6  1  0
  6  7  2  0
  7  8  1  0
  8  9  1  0
  9 10  1  0
 10 11  2  0
 11 12  1  0
 12 13  2  0
 13 14  1  0
 14 15  1  0
 14 16  2  0
 16 17  1  0
 17 18  2  0
 17 19  1  0
 19 20  1  0
  7 21  1  0
 21 22  2  0
 22 23  1  0
 23 24  1  0
 23 25  1  0
 23 26  1  0
 22  4  1  0
 19  8  2  0
 16 10  1  0
  1 27  1  0
  1 28  1  0
  1 29  1  0
  3 30  1  0
  3 31  1  0
  3 32  1  0
  5 33  1  0
  6 34  1  0
 11 35  1  0
 12 36  1  0
 13 37  1  0
 15 38  1  0
 20 39  1  0
 21 40  1  0
M  END
>  <meeko>  (5) 
{"is_sidechain": [false], "free_energy": -8.124, "intermolecular_energy": -10.75, "internal_energy": 0.355}

$$$$
