cand_021_out
     RDKit          3D

 36 38  0  0  0  0  0  0  0  0999 V2000
   47.4120  159.5890   30.9640 C   0  0  0  0  0  0  0  0  0  0  0  0
   48.4110  158.8470   31.4580 C   0  0  0  0  0  0  0  0  0  0  0  0
   49.7570  158.8380   30.8710 C   0  0  0  0  0  0  0  0  0  0  0  0
   50.1830  157.7090   30.1480 C   0  0  0  0  0  0  0  0  0  0  0  0
   51.4540  157.6520   29.5600 C   0  0  0  0  0  0  0  0  0  0  0  0
   51.8970  156.4750   28.7840 C   0  0  0  0  0  0  0  0  0  0  0  0
   52.4660  156.8150   27.5630 O   0  0  0  0  0  0  0  0  0  0  0  0
   52.9190  155.8140   26.7410 C   0  0  0  0  0  0  0  0  0  0  0  0
   53.4690  156.1990   25.5180 C   0  0  0  0  0  0  0  0  0  0  0  0
   53.9510  155.2290   24.6350 C   0  0  0  0  0  0  0  0  0  0  0  0
   53.8830  153.8770   24.9760 C   0  0  0  0  0  0  0  0  0  0  0  0
   53.3330  153.4960   26.1980 C   0  0  0  0  0  0  0  0  0  0  0  0
   53.2980  152.1550   26.4670 O   0  0  0  0  0  0  0  0  0  0  0  0
   52.8510  154.4660   27.0800 C   0  0  0  0  0  0  0  0  0  0  0  0
   52.2670  154.1090   28.3730 C   0  0  0  0  0  0  0  0  0  0  0  0
   52.1780  152.9410   28.7480 O   0  0  0  0  0  0  0  0  0  0  0  0
   51.7770  155.2110   29.2320 C   0  0  0  0  0  0  0  0  0  0  0  0
   51.2390  154.8650   30.4570 O   0  0  0  0  0  0  0  0  0  0  0  0
   52.2970  158.7620   29.6840 C   0  0  0  0  0  0  0  0  0  0  0  0
   51.8850  159.8930   30.3940 C   0  0  0  0  0  0  0  0  0  0  0  0
   50.6170  159.9460   30.9960 C   0  0  0  0  0  0  0  0  0  0  0  0
   50.2110  161.1750   31.7730 C   0  0  0  0  0  0  0  0  0  0  0  0
   51.1980  162.1120   31.8290 F   0  0  0  0  0  0  0  0  0  0  0  0
   49.8900  160.9100   33.0740 F   0  0  0  0  0  0  0  0  0  0  0  0
   46.4201  159.5622   31.4389 H   0  0  0  0  0  0  0  0  0  0  0  0
   47.5831  160.2254   30.0833 H   0  0  0  0  0  0  0  0  0  0  0  0
   48.2155  158.2186   32.3394 H   0  0  0  0  0  0  0  0  0  0  0  0
   49.5029  156.8510   30.0417 H   0  0  0  0  0  0  0  0  0  0  0  0
   53.5232  157.2643   25.2492 H   0  0  0  0  0  0  0  0  0  0  0  0
   54.3845  155.5311   23.6702 H   0  0  0  0  0  0  0  0  0  0  0  0
   54.2630  153.1138   24.2810 H   0  0  0  0  0  0  0  0  0  0  0  0
   54.0350  151.7380   26.8700 H   0  0  0  0  0  0  0  0  0  0  0  0
   51.7950  154.5420   31.1390 H   0  0  0  0  0  0  0  0  0  0  0  0
   53.2934  158.7441   29.2182 H   0  0  0  0  0  0  0  0  0  0  0  0
   52.5635  160.7542   30.4827 H   0  0  0  0  0  0  0  0  0  0  0  0
   49.3350  161.5448   31.2200 H   0  0  0  0  0  0  0  0  0  0  0  0
  1  2  2  0
  2  3  1  0
  3  4  2  0
  4  5  1  0
  5  6  1  0
  6  7  1  0
  7  8  1  0
  8  9  2  0
  9 10  1  0
 10 11  2  0
 11 12  1  0
 12 13  1  0
 12 14  2  0
 14 15  1  0
 15 16  2  0
 15 17  1  0
 17 18  1  0
  5 19  2  0
 19 20  1  0
 20 21  2  0
 21 22  1  0
 22 23  1  0
 22 24  1  0
 21  3  1  0
 17  6  2  0
 14  8  1  0
  1 25  1  0
  1 26  1  0
  2 27  1  0
  4 28  1  0
  9 29  1  0
 10 30  1  0
 11 31  1  0
 13 32  1  0
 18 33  1  0
 19 34  1  0
 20 35  1  0
 22 36  1  0
M  END
>  <meeko>  (1) 
{"is_sidechain": [false], "free_energy": -10.849, "intermolecular_energy": -13.386, "internal_energy": -0.108}

$$$$
cand_021_out
     RDKit          3D

 36 38  0  0  0  0  0  0  0  0999 V2000
   52.8180  161.5230   30.5240 C   0  0  0  0  0  0  0  0  0  0  0  0
   51.8020  161.0340   31.2460 C   0  0  0  0  0  0  0  0  0  0  0  0
   51.0240  159.8620   30.8270 C   0  0  0  0  0  0  0  0  0  0  0  0
   51.6610  158.8440   30.0940 C   0  0  0  0  0  0  0  0  0  0  0  0
   50.9680  157.6980   29.6760 C   0  0  0  0  0  0  0  0  0  0  0  0
   51.6380  156.6190   28.9220 C   0  0  0  0  0  0  0  0  0  0  0  0
   52.2150  157.0630   27.7390 O   0  0  0  0  0  0  0  0  0  0  0  0
   52.8700  156.1600   26.9400 C   0  0  0  0  0  0  0  0  0  0  0  0
   53.4190  156.6460   25.7530 C   0  0  0  0  0  0  0  0  0  0  0  0
   54.1010  155.7780   24.8960 C   0  0  0  0  0  0  0  0  0  0  0  0
   54.2330  154.4280   25.2260 C   0  0  0  0  0  0  0  0  0  0  0  0
   53.6830  153.9460   26.4120 C   0  0  0  0  0  0  0  0  0  0  0  0
   53.8500  152.6140   26.6730 O   0  0  0  0  0  0  0  0  0  0  0  0
   53.0010  154.8140   27.2680 C   0  0  0  0  0  0  0  0  0  0  0  0
   52.4090  154.3490   28.5230 C   0  0  0  0  0  0  0  0  0  0  0  0
   52.4880  153.1770   28.8880 O   0  0  0  0  0  0  0  0  0  0  0  0
   51.6990  155.3460   29.3570 C   0  0  0  0  0  0  0  0  0  0  0  0
   51.1550  154.9010   30.5470 O   0  0  0  0  0  0  0  0  0  0  0  0
   49.6190  157.5700   30.0280 C   0  0  0  0  0  0  0  0  0  0  0  0
   48.9760  158.5700   30.7620 C   0  0  0  0  0  0  0  0  0  0  0  0
   49.6660  159.7240   31.1680 C   0  0  0  0  0  0  0  0  0  0  0  0
   48.9360  160.7950   31.9420 C   0  0  0  0  0  0  0  0  0  0  0  0
   47.7920  160.3360   32.5250 F   0  0  0  0  0  0  0  0  0  0  0  0
   48.5470  161.8510   31.1690 F   0  0  0  0  0  0  0  0  0  0  0  0
   53.3716  162.4044   30.8800 H   0  0  0  0  0  0  0  0  0  0  0  0
   53.0991  161.0434   29.5748 H   0  0  0  0  0  0  0  0  0  0  0  0
   51.5396  161.5308   32.1917 H   0  0  0  0  0  0  0  0  0  0  0  0
   52.7268  158.9490   29.8429 H   0  0  0  0  0  0  0  0  0  0  0  0
   53.3153  157.7096   25.4924 H   0  0  0  0  0  0  0  0  0  0  0  0
   54.5346  156.1592   23.9597 H   0  0  0  0  0  0  0  0  0  0  0  0
   54.7704  153.7458   24.5508 H   0  0  0  0  0  0  0  0  0  0  0  0
   54.7100  152.2670   26.8120 H   0  0  0  0  0  0  0  0  0  0  0  0
   51.4670  154.1080   30.9380 H   0  0  0  0  0  0  0  0  0  0  0  0
   49.0597  156.6731   29.7236 H   0  0  0  0  0  0  0  0  0  0  0  0
   47.9146  158.4518   31.0256 H   0  0  0  0  0  0  0  0  0  0  0  0
   49.6750  161.1096   32.6936 H   0  0  0  0  0  0  0  0  0  0  0  0
  1  2  2  0
  2  3  1  0
  3  4  2  0
  4  5  1  0
  5  6  1  0
  6  7  1  0
  7  8  1  0
  8  9  2  0
  9 10  1  0
 10 11  2  0
 11 12  1  0
 12 13  1  0
 12 14  2  0
 14 15  1  0
 15 16  2  0
 15 17  1  0
 17 18  1  0
  5 19  2  0
 19 20  1  0
 20 21  2  0
 21 22  1  0
 22 23  1  0
 22 24  1  0
 21  3  1  0
 17  6  2  0
 14  8  1  0
  1 25  1  0
  1 26  1  0
  2 27  1  0
  4 28  1  0
  9 29  1  0
 10 30  1  0
 11 31  1  0
 13 32  1  0
 18 33  1  0
 19 34  1  0
 20 35  1  0
 22 36  1  0
M  END
>  <meeko>  (2) 
{"is_sidechain": [false], "free_energy": -10.816, "intermolecular_energy": -12.979, "internal_energy": -0.475}

$$$$
cand_021_out
     RDKit          3D

 36 38  0  0  0  0  0  0  0  0999 V2000
   54.1120  156.4890   24.9300 C   0  0  0  0  0  0  0  0  0  0  0  0
   53.7110  155.3080   25.4170 C   0  0  0  0  0  0  0  0  0  0  0  0
   52.9670  155.1810   26.6760 C   0  0  0  0  0  0  0  0  0  0  0  0
   52.6140  156.3440   27.3840 C   0  0  0  0  0  0  0  0  0  0  0  0
   51.8970  156.2810   28.5870 C   0  0  0  0  0  0  0  0  0  0  0  0
   51.5080  157.5020   29.3220 C   0  0  0  0  0  0  0  0  0  0  0  0
   50.1770  157.4920   29.7220 O   0  0  0  0  0  0  0  0  0  0  0  0
   49.6850  158.5690   30.4150 C   0  0  0  0  0  0  0  0  0  0  0  0
   48.3390  158.5250   30.7830 C   0  0  0  0  0  0  0  0  0  0  0  0
   47.7760  159.5890   31.4920 C   0  0  0  0  0  0  0  0  0  0  0  0
   48.5580  160.6950   31.8320 C   0  0  0  0  0  0  0  0  0  0  0  0
   49.9000  160.7360   31.4640 C   0  0  0  0  0  0  0  0  0  0  0  0
   50.6070  161.8490   31.8300 O   0  0  0  0  0  0  0  0  0  0  0  0
   50.4630  159.6720   30.7540 C   0  0  0  0  0  0  0  0  0  0  0  0
   51.8690  159.6750   30.3480 C   0  0  0  0  0  0  0  0  0  0  0  0
   52.6230  160.6090   30.6160 O   0  0  0  0  0  0  0  0  0  0  0  0
   52.3660  158.5030   29.5920 C   0  0  0  0  0  0  0  0  0  0  0  0
   53.6990  158.5090   29.2250 O   0  0  0  0  0  0  0  0  0  0  0  0
   51.5090  155.0250   29.0670 C   0  0  0  0  0  0  0  0  0  0  0  0
   51.8480  153.8610   28.3710 C   0  0  0  0  0  0  0  0  0  0  0  0
   52.5790  153.9230   27.1730 C   0  0  0  0  0  0  0  0  0  0  0  0
   52.9460  152.6460   26.4570 C   0  0  0  0  0  0  0  0  0  0  0  0
   52.1990  151.5810   26.8640 F   0  0  0  0  0  0  0  0  0  0  0  0
   54.2440  152.2700   26.6520 F   0  0  0  0  0  0  0  0  0  0  0  0
   54.6673  156.5329   23.9815 H   0  0  0  0  0  0  0  0  0  0  0  0
   53.8861  157.4154   25.4784 H   0  0  0  0  0  0  0  0  0  0  0  0
   53.9488  154.3956   24.8505 H   0  0  0  0  0  0  0  0  0  0  0  0
   52.9074  157.3259   26.9844 H   0  0  0  0  0  0  0  0  0  0  0  0
   47.7228  157.6540   30.5152 H   0  0  0  0  0  0  0  0  0  0  0  0
   46.7156  159.5556   31.7828 H   0  0  0  0  0  0  0  0  0  0  0  0
   48.1141  161.5327   32.3899 H   0  0  0  0  0  0  0  0  0  0  0  0
   50.4710  162.2340   32.6740 H   0  0  0  0  0  0  0  0  0  0  0  0
   53.9880  157.9880   28.5010 H   0  0  0  0  0  0  0  0  0  0  0  0
   50.9319  154.9530   30.0007 H   0  0  0  0  0  0  0  0  0  0  0  0
   51.5380  152.8827   28.7670 H   0  0  0  0  0  0  0  0  0  0  0  0
   52.7620  152.8891   25.4001 H   0  0  0  0  0  0  0  0  0  0  0  0
  1  2  2  0
  2  3  1  0
  3  4  2  0
  4  5  1  0
  5  6  1  0
  6  7  1  0
  7  8  1  0
  8  9  2  0
  9 10  1  0
 10 11  2  0
 11 12  1  0
 12 13  1  0
 12 14  2  0
 14 15  1  0
 15 16  2  0
 15 17  1  0
 17 18  1  0
  5 19  2  0
 19 20  1  0
 20 21  2  0
 21 22  1  0
 22 23  1  0
 22 24  1  0
 21  3  1  0
 17  6  2  0
 14  8  1  0
  1 25  1  0
  1 26  1  0
  2 27  1  0
  4 28  1  0
  9 29  1  0
 10 30  1  0
 11 31  1  0
 13 32  1  0
 18 33  1  0
 19 34  1  0
 20 35  1  0
 22 36  1  0
M  END
>  <meeko>  (3) 
{"is_sidechain": [false], "free_energy": -10.631, "intermolecular_energy": -12.839, "internal_energy": -0.386}

$$$$
cand_021_out
     RDKit          3D

 36 38  0  0  0  0  0  0  0  0999 V2000
   54.1840  156.6450   25.1710 C   0  0  0  0  0  0  0  0  0  0  0  0
   53.4690  155.5370   25.4010 C   0  0  0  0  0  0  0  0  0  0  0  0
   52.8190  155.2670   26.6900 C   0  0  0  0  0  0  0  0  0  0  0  0
   52.2830  156.3390   27.4250 C   0  0  0  0  0  0  0  0  0  0  0  0
   51.6450  156.1370   28.6570 C   0  0  0  0  0  0  0  0  0  0  0  0
   51.0640  157.2590   29.4230 C   0  0  0  0  0  0  0  0  0  0  0  0
   51.9720  158.2860   29.6510 O   0  0  0  0  0  0  0  0  0  0  0  0
   51.5620  159.3910   30.3530 C   0  0  0  0  0  0  0  0  0  0  0  0
   52.5110  160.3900   30.5740 C   0  0  0  0  0  0  0  0  0  0  0  0
   52.1560  161.5420   31.2810 C   0  0  0  0  0  0  0  0  0  0  0  0
   50.8560  161.6940   31.7650 C   0  0  0  0  0  0  0  0  0  0  0  0
   49.9110  160.6950   31.5430 C   0  0  0  0  0  0  0  0  0  0  0  0
   48.6570  160.9090   32.0450 O   0  0  0  0  0  0  0  0  0  0  0  0
   50.2660  159.5430   30.8370 C   0  0  0  0  0  0  0  0  0  0  0  0
   49.3040  158.4690   30.5820 C   0  0  0  0  0  0  0  0  0  0  0  0
   48.1390  158.5320   30.9700 O   0  0  0  0  0  0  0  0  0  0  0  0
   49.7820  157.2860   29.8310 C   0  0  0  0  0  0  0  0  0  0  0  0
   48.8630  156.2830   29.5830 O   0  0  0  0  0  0  0  0  0  0  0  0
   51.5250  154.8290   29.1390 C   0  0  0  0  0  0  0  0  0  0  0  0
   52.0470  153.7530   28.4160 C   0  0  0  0  0  0  0  0  0  0  0  0
   52.6990  153.9560   27.1890 C   0  0  0  0  0  0  0  0  0  0  0  0
   53.2700  152.7740   26.4430 C   0  0  0  0  0  0  0  0  0  0  0  0
   52.5800  151.6220   26.6760 F   0  0  0  0  0  0  0  0  0  0  0  0
   54.5630  152.4950   26.7810 F   0  0  0  0  0  0  0  0  0  0  0  0
   54.6525  156.8031   24.1884 H   0  0  0  0  0  0  0  0  0  0  0  0
   54.3030  157.3974   25.9646 H   0  0  0  0  0  0  0  0  0  0  0  0
   53.3641  154.7990   24.5920 H   0  0  0  0  0  0  0  0  0  0  0  0
   52.3661  157.3600   27.0241 H   0  0  0  0  0  0  0  0  0  0  0  0
   53.5359  160.2710   30.1927 H   0  0  0  0  0  0  0  0  0  0  0  0
   52.9027  162.3305   31.4563 H   0  0  0  0  0  0  0  0  0  0  0  0
   50.5779  162.6014   32.3211 H   0  0  0  0  0  0  0  0  0  0  0  0
   47.9130  160.5170   31.6310 H   0  0  0  0  0  0  0  0  0  0  0  0
   48.5860  156.1070   28.7050 H   0  0  0  0  0  0  0  0  0  0  0  0
   51.0149  154.6458   30.0962 H   0  0  0  0  0  0  0  0  0  0  0  0
   51.9457  152.7325   28.8138 H   0  0  0  0  0  0  0  0  0  0  0  0
   53.1977  153.0820   25.3895 H   0  0  0  0  0  0  0  0  0  0  0  0
  1  2  2  0
  2  3  1  0
  3  4  2  0
  4  5  1  0
  5  6  1  0
  6  7  1  0
  7  8  1  0
  8  9  2  0
  9 10  1  0
 10 11  2  0
 11 12  1  0
 12 13  1  0
 12 14  2  0
 14 15  1  0
 15 16  2  0
 15 17  1  0
 17 18  1  0
  5 19  2  0
 19 20  1  0
 20 21  2  0
 21 22  1  0
 22 23  1  0
 22 24  1  0
 21  3  1  0
 17  6  2  0
 14  8  1  0
  1 25  1  0
  1 26  1  0
  2 27  1  0
  4 28  1  0
  9 29  1  0
 10 30  1  0
 11 31  1  0
 13 32  1  0
 18 33  1  0
 19 34  1  0
 20 35  1  0
 22 36  1  0
M  END
>  <meeko>  (4) 
{"is_sidechain": [false], "free_energy": -9.446, "intermolecular_energy": -11.338, "internal_energy": -0.425}

$$$$
cand_021_out
     RDKit          3D

 36 38  0  0  0  0  0  0  0  0999 V2000
   51.5700  152.4200   28.0570 C   0  0  0  0  0  0  0  0  0  0  0  0
   52.1370  153.3760   28.8040 C   0  0  0  0  0  0  0  0  0  0  0  0
   52.2620  154.7670   28.3500 C   0  0  0  0  0  0  0  0  0  0  0  0
   51.7850  155.8020   29.1740 C   0  0  0  0  0  0  0  0  0  0  0  0
   51.8870  157.1480   28.7940 C   0  0  0  0  0  0  0  0  0  0  0  0
   51.4050  158.2390   29.6660 C   0  0  0  0  0  0  0  0  0  0  0  0
   50.0740  158.0880   30.0350 O   0  0  0  0  0  0  0  0  0  0  0  0
   49.4990  159.0340   30.8440 C   0  0  0  0  0  0  0  0  0  0  0  0
   48.1560  158.8520   31.1770 C   0  0  0  0  0  0  0  0  0  0  0  0
   47.5110  159.7790   32.0000 C   0  0  0  0  0  0  0  0  0  0  0  0
   48.2080  160.8850   32.4900 C   0  0  0  0  0  0  0  0  0  0  0  0
   49.5480  161.0640   32.1560 C   0  0  0  0  0  0  0  0  0  0  0  0
   50.1710  162.1680   32.6700 O   0  0  0  0  0  0  0  0  0  0  0  0
   50.1930  160.1370   31.3320 C   0  0  0  0  0  0  0  0  0  0  0  0
   51.6000  160.2870   30.9580 C   0  0  0  0  0  0  0  0  0  0  0  0
   52.2830  161.2300   31.3540 O   0  0  0  0  0  0  0  0  0  0  0  0
   52.1870  159.2550   30.0730 C   0  0  0  0  0  0  0  0  0  0  0  0
   53.5200  159.3980   29.7360 O   0  0  0  0  0  0  0  0  0  0  0  0
   52.5030  157.4510   27.5740 C   0  0  0  0  0  0  0  0  0  0  0  0
   52.9870  156.4330   26.7480 C   0  0  0  0  0  0  0  0  0  0  0  0
   52.8720  155.0840   27.1220 C   0  0  0  0  0  0  0  0  0  0  0  0
   53.3870  154.0080   26.1970 C   0  0  0  0  0  0  0  0  0  0  0  0
   54.4800  154.4030   25.4850 F   0  0  0  0  0  0  0  0  0  0  0  0
   52.4720  153.6140   25.2630 F   0  0  0  0  0  0  0  0  0  0  0  0
   51.4994  151.3915   28.4408 H   0  0  0  0  0  0  0  0  0  0  0  0
   51.1748  152.6632   27.0597 H   0  0  0  0  0  0  0  0  0  0  0  0
   52.5248  153.1085   29.7980 H   0  0  0  0  0  0  0  0  0  0  0  0
   51.3211  155.5499   30.1390 H   0  0  0  0  0  0  0  0  0  0  0  0
   47.6062  157.9804   30.7923 H   0  0  0  0  0  0  0  0  0  0  0  0
   46.4522  159.6371   32.2623 H   0  0  0  0  0  0  0  0  0  0  0  0
   47.6997  161.6136   33.1386 H   0  0  0  0  0  0  0  0  0  0  0  0
   50.9390  162.5100   32.2540 H   0  0  0  0  0  0  0  0  0  0  0  0
   54.1270  158.7070   29.9190 H   0  0  0  0  0  0  0  0  0  0  0  0
   52.6071  158.5008   27.2624 H   0  0  0  0  0  0  0  0  0  0  0  0
   53.4647  156.6918   25.7915 H   0  0  0  0  0  0  0  0  0  0  0  0
   53.6288  153.1828   26.8829 H   0  0  0  0  0  0  0  0  0  0  0  0
  1  2  2  0
  2  3  1  0
  3  4  2  0
  4  5  1  0
  5  6  1  0
  6  7  1  0
  7  8  1  0
  8  9  2  0
  9 10  1  0
 10 11  2  0
 11 12  1  0
 12 13  1  0
 12 14  2  0
 14 15  1  0
 15 16  2  0
 15 17  1  0
 17 18  1  0
  5 19  2  0
 19 20  1  0
 20 21  2  0
 21 22  1  0
 22 23  1  0
 22 24  1  0
 21  3  1  0
 17  6  2  0
 14  8  1  0
  1 25  1  0
  1 26  1  0
  2 27  1  0
  4 28  1  0
  9 29  1  0
 10 30  1  0
 11 31  1  0
 13 32  1  0
 18 33  1  0
 19 34  1  0
 20 35  1  0
 22 36  1  0
M  END
>  <meeko>  (5) 
{"is_sidechain": [false], "free_energy": -9.03, "intermolecular_energy": -11.301, "internal_energy": 0.052}

$$$$
cand_021_out
     RDKit          3D

 36 38  0  0  0  0  0  0  0  0999 V2000
   51.6200  152.1630   27.7500 C   0  0  0  0  0  0  0  0  0  0  0  0
   52.4610  153.0340   28.3210 C   0  0  0  0  0  0  0  0  0  0  0  0
   52.4740  154.4630   27.9820 C   0  0  0  0  0  0  0  0  0  0  0  0
   51.8320  155.3760   28.8380 C   0  0  0  0  0  0  0  0  0  0  0  0
   51.8210  156.7510   28.5670 C   0  0  0  0  0  0  0  0  0  0  0  0
   51.1640  157.7150   29.4740 C   0  0  0  0  0  0  0  0  0  0  0  0
   51.9540  158.8250   29.7480 O   0  0  0  0  0  0  0  0  0  0  0  0
   51.4630  159.7990   30.5800 C   0  0  0  0  0  0  0  0  0  0  0  0
   52.2950  160.8890   30.8410 C   0  0  0  0  0  0  0  0  0  0  0  0
   51.8540  161.9160   31.6790 C   0  0  0  0  0  0  0  0  0  0  0  0
   50.5840  161.8540   32.2550 C   0  0  0  0  0  0  0  0  0  0  0  0
   49.7560  160.7650   31.9930 C   0  0  0  0  0  0  0  0  0  0  0  0
   48.5250  160.7680   32.5890 O   0  0  0  0  0  0  0  0  0  0  0  0
   50.1970  159.7370   31.1560 C   0  0  0  0  0  0  0  0  0  0  0  0
   49.3590  158.5760   30.8540 C   0  0  0  0  0  0  0  0  0  0  0  0
   48.2260  158.4510   31.3170 O   0  0  0  0  0  0  0  0  0  0  0  0
   49.9220  157.5370   29.9620 C   0  0  0  0  0  0  0  0  0  0  0  0
   49.1180  156.4510   29.6720 O   0  0  0  0  0  0  0  0  0  0  0  0
   52.4910  157.2110   27.4270 C   0  0  0  0  0  0  0  0  0  0  0  0
   53.1370  156.3170   26.5710 C   0  0  0  0  0  0  0  0  0  0  0  0
   53.1370  154.9370   26.8350 C   0  0  0  0  0  0  0  0  0  0  0  0
   53.8280  153.9950   25.8790 C   0  0  0  0  0  0  0  0  0  0  0  0
   54.7870  154.6120   25.1330 F   0  0  0  0  0  0  0  0  0  0  0  0
   52.9800  153.4240   24.9730 F   0  0  0  0  0  0  0  0  0  0  0  0
   51.6486  151.1016   28.0375 H   0  0  0  0  0  0  0  0  0  0  0  0
   50.9003  152.5086   26.9933 H   0  0  0  0  0  0  0  0  0  0  0  0
   53.1715  152.6643   29.0750 H   0  0  0  0  0  0  0  0  0  0  0  0
   51.3270  155.0022   29.7409 H   0  0  0  0  0  0  0  0  0  0  0  0
   53.2960  160.9392   30.3877 H   0  0  0  0  0  0  0  0  0  0  0  0
   52.5089  162.7754   31.8854 H   0  0  0  0  0  0  0  0  0  0  0  0
   50.2378  162.6635   32.9145 H   0  0  0  0  0  0  0  0  0  0  0  0
   48.1810  161.5620   32.9500 H   0  0  0  0  0  0  0  0  0  0  0  0
   48.4430  156.1950   30.2690 H   0  0  0  0  0  0  0  0  0  0  0  0
   52.5086  158.2879   27.2034 H   0  0  0  0  0  0  0  0  0  0  0  0
   53.6531  156.6983   25.6776 H   0  0  0  0  0  0  0  0  0  0  0  0
   54.2607  153.2344   26.5456 H   0  0  0  0  0  0  0  0  0  0  0  0
  1  2  2  0
  2  3  1  0
  3  4  2  0
  4  5  1  0
  5  6  1  0
  6  7  1  0
  7  8  1  0
  8  9  2  0
  9 10  1  0
 10 11  2  0
 11 12  1  0
 12 13  1  0
 12 14  2  0
 14 15  1  0
 15 16  2  0
 15 17  1  0
 17 18  1  0
  5 19  2  0
 19 20  1  0
 20 21  2  0
 21 22  1  0
 22 23  1  0
 22 24  1  0
 21  3  1  0
 17  6  2  0
 14  8  1  0
  1 25  1  0
  1 26  1  0
  2 27  1  0
  4 28  1  0
  9 29  1  0
 10 30  1  0
 11 31  1  0
 13 32  1  0
 18 33  1  0
 19 34  1  0
 20 35  1  0
 22 36  1  0
M  END
>  <meeko>  (6) 
{"is_sidechain": [false], "free_energy": -8.453, "intermolecular_energy": -10.226, "internal_energy": -0.311}

$$$$
cand_021_out
     RDKit          3D

 36 38  0  0  0  0  0  0  0  0999 V2000
   51.1750  160.7510   30.1370 C   0  0  0  0  0  0  0  0  0  0  0  0
   51.8520  159.5970   30.1790 C   0  0  0  0  0  0  0  0  0  0  0  0
   51.2570  158.3140   29.7840 C   0  0  0  0  0  0  0  0  0  0  0  0
   51.9590  157.4770   28.8990 C   0  0  0  0  0  0  0  0  0  0  0  0
   51.4420  156.2370   28.4960 C   0  0  0  0  0  0  0  0  0  0  0  0
   52.1860  155.3470   27.5810 C   0  0  0  0  0  0  0  0  0  0  0  0
   51.7980  154.0170   27.6860 O   0  0  0  0  0  0  0  0  0  0  0  0
   52.4120  153.0830   26.8910 C   0  0  0  0  0  0  0  0  0  0  0  0
   52.0030  151.7570   27.0400 C   0  0  0  0  0  0  0  0  0  0  0  0
   52.5880  150.7560   26.2600 C   0  0  0  0  0  0  0  0  0  0  0  0
   53.5790  151.0810   25.3320 C   0  0  0  0  0  0  0  0  0  0  0  0
   53.9850  152.4060   25.1860 C   0  0  0  0  0  0  0  0  0  0  0  0
   54.9600  152.6540   24.2590 O   0  0  0  0  0  0  0  0  0  0  0  0
   53.4010  153.4060   25.9670 C   0  0  0  0  0  0  0  0  0  0  0  0
   53.7980  154.8090   25.8440 C   0  0  0  0  0  0  0  0  0  0  0  0
   54.6580  155.1770   25.0460 O   0  0  0  0  0  0  0  0  0  0  0  0
   53.1240  155.7910   26.7240 C   0  0  0  0  0  0  0  0  0  0  0  0
   53.4960  157.1160   26.5920 O   0  0  0  0  0  0  0  0  0  0  0  0
   50.2080  155.8290   29.0160 C   0  0  0  0  0  0  0  0  0  0  0  0
   49.5020  156.6480   29.9010 C   0  0  0  0  0  0  0  0  0  0  0  0
   50.0130  157.8960   30.2940 C   0  0  0  0  0  0  0  0  0  0  0  0
   49.2160  158.7650   31.2360 C   0  0  0  0  0  0  0  0  0  0  0  0
   48.6420  158.0560   32.2480 F   0  0  0  0  0  0  0  0  0  0  0  0
   48.1840  159.4200   30.6250 F   0  0  0  0  0  0  0  0  0  0  0  0
   51.6644  161.6873   30.4434 H   0  0  0  0  0  0  0  0  0  0  0  0
   50.1292  160.7631   29.7961 H   0  0  0  0  0  0  0  0  0  0  0  0
   52.8966  159.6104   30.5234 H   0  0  0  0  0  0  0  0  0  0  0  0
   52.9366  157.8022   28.5136 H   0  0  0  0  0  0  0  0  0  0  0  0
   51.2214  151.5003   27.7702 H   0  0  0  0  0  0  0  0  0  0  0  0
   52.2672  149.7104   26.3774 H   0  0  0  0  0  0  0  0  0  0  0  0
   54.0384  150.2928   24.7174 H   0  0  0  0  0  0  0  0  0  0  0  0
   55.6530  153.2540   24.4560 H   0  0  0  0  0  0  0  0  0  0  0  0
   53.3770  157.7100   27.3070 H   0  0  0  0  0  0  0  0  0  0  0  0
   49.7900  154.8540   28.7250 H   0  0  0  0  0  0  0  0  0  0  0  0
   48.5322  156.3106   30.2956 H   0  0  0  0  0  0  0  0  0  0  0  0
   49.9642  159.4767   31.6150 H   0  0  0  0  0  0  0  0  0  0  0  0
  1  2  2  0
  2  3  1  0
  3  4  2  0
  4  5  1  0
  5  6  1  0
  6  7  1  0
  7  8  1  0
  8  9  2  0
  9 10  1  0
 10 11  2  0
 11 12  1  0
 12 13  1  0
 12 14  2  0
 14 15  1  0
 15 16  2  0
 15 17  1  0
 17 18  1  0
  5 19  2  0
 19 20  1  0
 20 21  2  0
 21 22  1  0
 22 23  1  0
 22 24  1  0
 21  3  1  0
 17  6  2  0
 14  8  1  0
  1 25  1  0
  1 26  1  0
  2 27  1  0
  4 28  1  0
  9 29  1  0
 10 30  1  0
 11 31  1  0
 13 32  1  0
 18 33  1  0
 19 34  1  0
 20 35  1  0
 22 36  1  0
M  END
>  <meeko>  (7) 
{"is_sidechain": [false], "free_energy": -8.166, "intermolecular_energy": -10.562, "internal_energy": 0.379}

$$$$
cand_021_out
     RDKit          3D

 36 38  0  0  0  0  0  0  0  0999 V2000
   48.0340  158.9410   30.3240 C   0  0  0  0  0  0  0  0  0  0  0  0
   48.9070  157.9690   30.6150 C   0  0  0  0  0  0  0  0  0  0  0  0
   50.2630  157.9270   30.0540 C   0  0  0  0  0  0  0  0  0  0  0  0
   50.6410  156.8310   29.2560 C   0  0  0  0  0  0  0  0  0  0  0  0
   51.9200  156.7440   28.6880 C   0  0  0  0  0  0  0  0  0  0  0  0
   52.3130  155.6050   27.8340 C   0  0  0  0  0  0  0  0  0  0  0  0
   51.7980  154.3930   28.2790 O   0  0  0  0  0  0  0  0  0  0  0  0
   52.0890  153.2510   27.5760 C   0  0  0  0  0  0  0  0  0  0  0  0
   51.5660  152.0540   28.0660 C   0  0  0  0  0  0  0  0  0  0  0  0
   51.8230  150.8560   27.3960 C   0  0  0  0  0  0  0  0  0  0  0  0
   52.6000  150.8550   26.2370 C   0  0  0  0  0  0  0  0  0  0  0  0
   53.1220  152.0510   25.7490 C   0  0  0  0  0  0  0  0  0  0  0  0
   53.8750  151.9780   24.6100 O   0  0  0  0  0  0  0  0  0  0  0  0
   52.8660  153.2490   26.4210 C   0  0  0  0  0  0  0  0  0  0  0  0
   53.3930  154.5280   25.9420 C   0  0  0  0  0  0  0  0  0  0  0  0
   54.0800  154.6110   24.9260 O   0  0  0  0  0  0  0  0  0  0  0  0
   53.0710  155.7400   26.7300 C   0  0  0  0  0  0  0  0  0  0  0  0
   53.5620  156.9450   26.2630 O   0  0  0  0  0  0  0  0  0  0  0  0
   52.8200  157.7930   28.9100 C   0  0  0  0  0  0  0  0  0  0  0  0
   52.4560  158.8900   29.6950 C   0  0  0  0  0  0  0  0  0  0  0  0
   51.1800  158.9710   30.2760 C   0  0  0  0  0  0  0  0  0  0  0  0
   50.8260  160.1600   31.1360 C   0  0  0  0  0  0  0  0  0  0  0  0
   50.3350  161.2060   30.4120 F   0  0  0  0  0  0  0  0  0  0  0  0
   51.8920  160.6670   31.8230 F   0  0  0  0  0  0  0  0  0  0  0  0
   47.0285  158.9288   30.7699 H   0  0  0  0  0  0  0  0  0  0  0  0
   48.3221  159.7520   29.6389 H   0  0  0  0  0  0  0  0  0  0  0  0
   48.5957  157.1689   31.3027 H   0  0  0  0  0  0  0  0  0  0  0  0
   49.9162  156.0239   29.0737 H   0  0  0  0  0  0  0  0  0  0  0  0
   50.9521  152.0539   28.9788 H   0  0  0  0  0  0  0  0  0  0  0  0
   51.4122  149.9116   27.7825 H   0  0  0  0  0  0  0  0  0  0  0  0
   52.8002  149.9109   25.7092 H   0  0  0  0  0  0  0  0  0  0  0  0
   54.1970  152.7620   24.2090 H   0  0  0  0  0  0  0  0  0  0  0  0
   53.5560  157.1290   25.3440 H   0  0  0  0  0  0  0  0  0  0  0  0
   53.8238  157.7532   28.4619 H   0  0  0  0  0  0  0  0  0  0  0  0
   53.1794  159.7020   29.8604 H   0  0  0  0  0  0  0  0  0  0  0  0
   50.0704  159.7555   31.8255 H   0  0  0  0  0  0  0  0  0  0  0  0
  1  2  2  0
  2  3  1  0
  3  4  2  0
  4  5  1  0
  5  6  1  0
  6  7  1  0
  7  8  1  0
  8  9  2  0
  9 10  1  0
 10 11  2  0
 11 12  1  0
 12 13  1  0
 12 14  2  0
 14 15  1  0
 15 16  2  0
 15 17  1  0
 17 18  1  0
  5 19  2  0
 19 20  1  0
 20 21  2  0
 21 22  1  0
 22 23  1  0
 22 24  1  0
 21  3  1  0
 17  6  2  0
 14  8  1  0
  1 25  1  0
  1 26  1  0
  2 27  1  0
  4 28  1  0
  9 29  1  0
 10 30  1  0
 11 31  1  0
 13 32  1  0
 18 33  1  0
 19 34  1  0
 20 35  1  0
 22 36  1  0
M  END
>  <meeko>  (8) 
{"is_sidechain": [false], "free_energy": -8.002, "intermolecular_energy": -10.095, "internal_energy": 0.114}

$$$$
