cand_051_out
     RDKit          3D

 44 46  0  0  0  0  0  0  0  0999 V2000
   52.3980  160.9580   30.5430 C   0  0  0  0  0  0  0  0  0  0  0  0
   51.5170  159.7560   30.3410 C   0  0  0  0  0  0  0  0  0  0  0  0
   52.0430  158.6390   29.6640 C   0  0  0  0  0  0  0  0  0  0  0  0
   51.2800  157.4840   29.4340 C   0  0  0  0  0  0  0  0  0  0  0  0
   51.8680  156.3460   28.6970 C   0  0  0  0  0  0  0  0  0  0  0  0
   52.4470  156.7250   27.4910 O   0  0  0  0  0  0  0  0  0  0  0  0
   53.0310  155.7650   26.7040 C   0  0  0  0  0  0  0  0  0  0  0  0
   53.5870  156.1880   25.4960 C   0  0  0  0  0  0  0  0  0  0  0  0
   54.1990  155.2620   24.6490 C   0  0  0  0  0  0  0  0  0  0  0  0
   54.2560  153.9140   25.0090 C   0  0  0  0  0  0  0  0  0  0  0  0
   53.7010  153.4950   26.2160 C   0  0  0  0  0  0  0  0  0  0  0  0
   53.7920  152.1620   26.5070 O   0  0  0  0  0  0  0  0  0  0  0  0
   53.0870  154.4220   27.0630 C   0  0  0  0  0  0  0  0  0  0  0  0
   52.4920  154.0240   28.3390 C   0  0  0  0  0  0  0  0  0  0  0  0
   52.5090  152.8580   28.7290 O   0  0  0  0  0  0  0  0  0  0  0  0
   51.8600  155.0820   29.1600 C   0  0  0  0  0  0  0  0  0  0  0  0
   51.3120  154.6970   30.3700 O   0  0  0  0  0  0  0  0  0  0  0  0
   49.9560  157.4670   29.8790 C   0  0  0  0  0  0  0  0  0  0  0  0
   49.4170  158.5670   30.5500 C   0  0  0  0  0  0  0  0  0  0  0  0
   50.1830  159.7190   30.7950 C   0  0  0  0  0  0  0  0  0  0  0  0
   49.5320  160.8710   31.5330 C   0  0  0  0  0  0  0  0  0  0  0  0
   48.6000  160.4330   32.6820 C   0  0  0  0  0  0  0  0  0  0  0  0
   47.2040  160.1310   32.1300 C   0  0  0  0  0  0  0  0  0  0  0  0
   48.5000  161.4940   33.7810 C   0  0  0  0  0  0  0  0  0  0  0  0
   52.5304  161.1387   31.6199 H   0  0  0  0  0  0  0  0  0  0  0  0
   53.3784  160.7763   30.0784 H   0  0  0  0  0  0  0  0  0  0  0  0
   51.9296  161.8382   30.0784 H   0  0  0  0  0  0  0  0  0  0  0  0
   53.0822  158.6728   29.3050 H   0  0  0  0  0  0  0  0  0  0  0  0
   53.5432  157.2497   25.2114 H   0  0  0  0  0  0  0  0  0  0  0  0
   54.6370  155.5949   23.6965 H   0  0  0  0  0  0  0  0  0  0  0  0
   54.7380  153.1848   24.3411 H   0  0  0  0  0  0  0  0  0  0  0  0
   54.2970  151.5950   25.9580 H   0  0  0  0  0  0  0  0  0  0  0  0
   50.4620  155.0030   30.6180 H   0  0  0  0  0  0  0  0  0  0  0  0
   49.3321  156.5790   29.6993 H   0  0  0  0  0  0  0  0  0  0  0  0
   48.3726  158.5307   30.8933 H   0  0  0  0  0  0  0  0  0  0  0  0
   50.3261  161.5050   31.9542 H   0  0  0  0  0  0  0  0  0  0  0  0
   48.9071  161.4050   30.8020 H   0  0  0  0  0  0  0  0  0  0  0  0
   49.0331  159.5274   33.1318 H   0  0  0  0  0  0  0  0  0  0  0  0
   46.5043  159.9796   32.9652 H   0  0  0  0  0  0  0  0  0  0  0  0
   46.8625  160.9760   31.5141 H   0  0  0  0  0  0  0  0  0  0  0  0
   47.2423  159.2204   31.5141 H   0  0  0  0  0  0  0  0  0  0  0  0
   48.5459  161.0069   34.7662 H   0  0  0  0  0  0  0  0  0  0  0  0
   49.3353  162.2030   33.6832 H   0  0  0  0  0  0  0  0  0  0  0  0
   47.5469  162.0345   33.6832 H   0  0  0  0  0  0  0  0  0  0  0  0
  1  2  1  0
  2  3  2  0
  3  4  1  0
  4  5  1  0
  5  6  1  0
  6  7  1  0
  7  8  2  0
  8  9  1  0
  9 10  2  0
 10 11  1  0
 11 12  1  0
 11 13  2  0
 13 14  1  0
 14 15  2  0
 14 16  1  0
 16 17  1  0
  4 18  2  0
 18 19  1  0
 19 20  2  0
 20 21  1  0
 21 22  1  0
 22 23  1  0
 22 24  1  0
 20  2  1  0
 16  5  2  0
 13  7  1  0
  1 25  1  0
  1 26  1  0
  1 27  1  0
  3 28  1  0
  8 29  1  0
  9 30  1  0
 10 31  1  0
 12 32  1  0
 17 33  1  0
 18 34  1  0
 19 35  1  0
 21 36  1  0
 21 37  1  0
 22 38  1  0
 23 39  1  0
 23 40  1  0
 23 41  1  0
 24 42  1  0
 24 43  1  0
 24 44  1  0
M  END
>  <meeko>  (1) 
{"is_sidechain": [false], "free_energy": -11.29, "intermolecular_energy": -13.93, "internal_energy": -0.096}

$$$$
cand_051_out
     RDKit          3D

 44 46  0  0  0  0  0  0  0  0999 V2000
   52.1070  160.5630   30.4370 C   0  0  0  0  0  0  0  0  0  0  0  0
   51.4130  159.2440   30.2350 C   0  0  0  0  0  0  0  0  0  0  0  0
   52.0290  158.2750   29.4200 C   0  0  0  0  0  0  0  0  0  0  0  0
   51.4390  157.0240   29.1820 C   0  0  0  0  0  0  0  0  0  0  0  0
   52.1130  156.0470   28.3000 C   0  0  0  0  0  0  0  0  0  0  0  0
   52.7000  156.6410   27.1880 O   0  0  0  0  0  0  0  0  0  0  0  0
   53.3600  155.8480   26.2840 C   0  0  0  0  0  0  0  0  0  0  0  0
   53.9230  156.4830   25.1760 C   0  0  0  0  0  0  0  0  0  0  0  0
   54.6100  155.7340   24.2180 C   0  0  0  0  0  0  0  0  0  0  0  0
   54.7360  154.3520   24.3680 C   0  0  0  0  0  0  0  0  0  0  0  0
   54.1730  153.7200   25.4750 C   0  0  0  0  0  0  0  0  0  0  0  0
   54.3340  152.3640   25.5600 O   0  0  0  0  0  0  0  0  0  0  0  0
   53.4850  154.4700   26.4330 C   0  0  0  0  0  0  0  0  0  0  0  0
   52.8800  153.8460   27.6100 C   0  0  0  0  0  0  0  0  0  0  0  0
   52.9540  152.6360   27.8160 O   0  0  0  0  0  0  0  0  0  0  0  0
   52.1650  154.7280   28.5620 C   0  0  0  0  0  0  0  0  0  0  0  0
   51.6090  154.1300   29.6770 O   0  0  0  0  0  0  0  0  0  0  0  0
   50.1960  156.7570   29.7620 C   0  0  0  0  0  0  0  0  0  0  0  0
   49.5700  157.7080   30.5710 C   0  0  0  0  0  0  0  0  0  0  0  0
   50.1650  158.9550   30.8230 C   0  0  0  0  0  0  0  0  0  0  0  0
   49.4280  159.9350   31.7140 C   0  0  0  0  0  0  0  0  0  0  0  0
   48.2710  160.6750   31.0110 C   0  0  0  0  0  0  0  0  0  0  0  0
   48.1620  162.1020   31.5560 C   0  0  0  0  0  0  0  0  0  0  0  0
   46.9330  159.9540   31.1850 C   0  0  0  0  0  0  0  0  0  0  0  0
   52.2113  160.7613   31.5139 H   0  0  0  0  0  0  0  0  0  0  0  0
   53.1035  160.5280   29.9724 H   0  0  0  0  0  0  0  0  0  0  0  0
   51.5138  161.3644   29.9724 H   0  0  0  0  0  0  0  0  0  0  0  0
   52.9999  158.5049   28.9569 H   0  0  0  0  0  0  0  0  0  0  0  0
   53.8258  157.5723   25.0573 H   0  0  0  0  0  0  0  0  0  0  0  0
   55.0525  156.2340   23.3438 H   0  0  0  0  0  0  0  0  0  0  0  0
   55.2786  153.7630   23.6139 H   0  0  0  0  0  0  0  0  0  0  0  0
   54.3850  151.8480   24.7800 H   0  0  0  0  0  0  0  0  0  0  0  0
   50.7060  154.2740   29.8840 H   0  0  0  0  0  0  0  0  0  0  0  0
   49.7061  155.7891   29.5798 H   0  0  0  0  0  0  0  0  0  0  0  0
   48.5926  157.4759   31.0192 H   0  0  0  0  0  0  0  0  0  0  0  0
   49.0149  159.3811   32.5699 H   0  0  0  0  0  0  0  0  0  0  0  0
   50.1577  160.7004   32.0170 H   0  0  0  0  0  0  0  0  0  0  0  0
   48.4988  160.6972   29.9351 H   0  0  0  0  0  0  0  0  0  0  0  0
   48.1640  162.0757   32.6557 H   0  0  0  0  0  0  0  0  0  0  0  0
   49.0174  162.6961   31.2019 H   0  0  0  0  0  0  0  0  0  0  0  0
   47.2263  162.5593   31.2019 H   0  0  0  0  0  0  0  0  0  0  0  0
   46.7162  159.8371   32.2571 H   0  0  0  0  0  0  0  0  0  0  0  0
   46.1343  160.5439   30.7115 H   0  0  0  0  0  0  0  0  0  0  0  0
   46.9864  158.9625   30.7115 H   0  0  0  0  0  0  0  0  0  0  0  0
  1  2  1  0
  2  3  2  0
  3  4  1  0
  4  5  1  0
  5  6  1  0
  6  7  1  0
  7  8  2  0
  8  9  1  0
  9 10  2  0
 10 11  1  0
 11 12  1  0
 11 13  2  0
 13 14  1  0
 14 15  2  0
 14 16  1  0
 16 17  1  0
  4 18  2  0
 18 19  1  0
 19 20  2  0
 20 21  1  0
 21 22  1  0
 22 23  1  0
 22 24  1  0
 20  2  1  0
 16  5  2  0
 13  7  1  0
  1 25  1  0
  1 26  1  0
  1 27  1  0
  3 28  1  0
  8 29  1  0
  9 30  1  0
 10 31  1  0
 12 32  1  0
 17 33  1  0
 18 34  1  0
 19 35  1  0
 21 36  1  0
 21 37  1  0
 22 38  1  0
 23 39  1  0
 23 40  1  0
 23 41  1  0
 24 42  1  0
 24 43  1  0
 24 44  1  0
M  END
>  <meeko>  (2) 
{"is_sidechain": [false], "free_energy": -10.778, "intermolecular_energy": -13.066, "internal_energy": -0.328}

$$$$
cand_051_out
     RDKit          3D

 44 46  0  0  0  0  0  0  0  0999 V2000
   48.1360  158.8810   30.7130 C   0  0  0  0  0  0  0  0  0  0  0  0
   49.5950  158.8520   30.3500 C   0  0  0  0  0  0  0  0  0  0  0  0
   50.0990  157.7260   29.6720 C   0  0  0  0  0  0  0  0  0  0  0  0
   51.4510  157.6260   29.3050 C   0  0  0  0  0  0  0  0  0  0  0  0
   51.9400  156.4120   28.6150 C   0  0  0  0  0  0  0  0  0  0  0  0
   52.5310  156.6910   27.3880 O   0  0  0  0  0  0  0  0  0  0  0  0
   53.0290  155.6540   26.6410 C   0  0  0  0  0  0  0  0  0  0  0  0
   53.6020  155.9770   25.4100 C   0  0  0  0  0  0  0  0  0  0  0  0
   54.1290  154.9680   24.6020 C   0  0  0  0  0  0  0  0  0  0  0  0
   54.0850  153.6380   25.0220 C   0  0  0  0  0  0  0  0  0  0  0  0
   53.5130  153.3190   26.2520 C   0  0  0  0  0  0  0  0  0  0  0  0
   53.5040  151.9960   26.6030 O   0  0  0  0  0  0  0  0  0  0  0  0
   52.9850  154.3280   27.0610 C   0  0  0  0  0  0  0  0  0  0  0  0
   52.3760  154.0350   28.3590 C   0  0  0  0  0  0  0  0  0  0  0  0
   52.3060  152.8900   28.8020 O   0  0  0  0  0  0  0  0  0  0  0  0
   51.8380  155.1760   29.1360 C   0  0  0  0  0  0  0  0  0  0  0  0
   51.2770  154.8890   30.3670 O   0  0  0  0  0  0  0  0  0  0  0  0
   52.3090  158.6730   29.6480 C   0  0  0  0  0  0  0  0  0  0  0  0
   51.8260  159.7970   30.3220 C   0  0  0  0  0  0  0  0  0  0  0  0
   50.4710  159.9060   30.6780 C   0  0  0  0  0  0  0  0  0  0  0  0
   50.0180  161.1570   31.4050 C   0  0  0  0  0  0  0  0  0  0  0  0
   48.9870  160.8950   32.5220 C   0  0  0  0  0  0  0  0  0  0  0  0
   48.2020  162.1760   32.8140 C   0  0  0  0  0  0  0  0  0  0  0  0
   49.6460  160.3920   33.8090 C   0  0  0  0  0  0  0  0  0  0  0  0
   48.0306  158.8831   31.8079 H   0  0  0  0  0  0  0  0  0  0  0  0
   47.6729  159.7885   30.2983 H   0  0  0  0  0  0  0  0  0  0  0  0
   47.6373  157.9926   30.2983 H   0  0  0  0  0  0  0  0  0  0  0  0
   49.4149  156.9015   29.4227 H   0  0  0  0  0  0  0  0  0  0  0  0
   53.6383  157.0248   25.0771 H   0  0  0  0  0  0  0  0  0  0  0  0
   54.5802  155.2220   23.6315 H   0  0  0  0  0  0  0  0  0  0  0  0
   54.5005  152.8439   24.3842 H   0  0  0  0  0  0  0  0  0  0  0  0
   53.5390  151.3350   25.9400 H   0  0  0  0  0  0  0  0  0  0  0  0
   50.3460  154.8140   30.4510 H   0  0  0  0  0  0  0  0  0  0  0  0
   53.3753  158.6120   29.3849 H   0  0  0  0  0  0  0  0  0  0  0  0
   52.5190  160.6118   30.5788 H   0  0  0  0  0  0  0  0  0  0  0  0
   50.9010  161.6347   31.8545 H   0  0  0  0  0  0  0  0  0  0  0  0
   49.5236  161.7970   30.6593 H   0  0  0  0  0  0  0  0  0  0  0  0
   48.3068  160.1076   32.1652 H   0  0  0  0  0  0  0  0  0  0  0  0
   48.1173  162.3142   33.9020 H   0  0  0  0  0  0  0  0  0  0  0  0
   48.7280  163.0365   32.3749 H   0  0  0  0  0  0  0  0  0  0  0  0
   47.1964  162.0980   32.3749 H   0  0  0  0  0  0  0  0  0  0  0  0
   49.1108  160.8005   34.6789 H   0  0  0  0  0  0  0  0  0  0  0  0
   49.6054  159.2931   33.8364 H   0  0  0  0  0  0  0  0  0  0  0  0
   50.6953  160.7210   33.8364 H   0  0  0  0  0  0  0  0  0  0  0  0
  1  2  1  0
  2  3  2  0
  3  4  1  0
  4  5  1  0
  5  6  1  0
  6  7  1  0
  7  8  2  0
  8  9  1  0
  9 10  2  0
 10 11  1  0
 11 12  1  0
 11 13  2  0
 13 14  1  0
 14 15  2  0
 14 16  1  0
 16 17  1  0
  4 18  2  0
 18 19  1  0
 19 20  2  0
 20 21  1  0
 21 22  1  0
 22 23  1  0
 22 24  1  0
 20  2  1  0
 16  5  2  0
 13  7  1  0
  1 25  1  0
  1 26  1  0
  1 27  1  0
  3 28  1  0
  8 29  1  0
  9 30  1  0
 10 31  1  0
 12 32  1  0
 17 33  1  0
 18 34  1  0
 19 35  1  0
 21 36  1  0
 21 37  1  0
 22 38  1  0
 23 39  1  0
 23 40  1  0
 23 41  1  0
 24 42  1  0
 24 43  1  0
 24 44  1  0
M  END
>  <meeko>  (3) 
{"is_sidechain": [false], "free_energy": -10.411, "intermolecular_energy": -13.09, "internal_energy": 0.149}

$$$$
cand_051_out
     RDKit          3D

 44 46  0  0  0  0  0  0  0  0999 V2000
   48.7360  158.0380   31.1490 C   0  0  0  0  0  0  0  0  0  0  0  0
   50.0590  158.0420   30.4350 C   0  0  0  0  0  0  0  0  0  0  0  0
   50.4320  156.9010   29.7000 C   0  0  0  0  0  0  0  0  0  0  0  0
   51.6540  156.8300   29.0110 C   0  0  0  0  0  0  0  0  0  0  0  0
   52.0130  155.6010   28.2720 C   0  0  0  0  0  0  0  0  0  0  0  0
   52.6040  155.8650   27.0420 O   0  0  0  0  0  0  0  0  0  0  0  0
   52.9880  154.8120   26.2510 C   0  0  0  0  0  0  0  0  0  0  0  0
   53.5650  155.1220   25.0180 C   0  0  0  0  0  0  0  0  0  0  0  0
   53.9800  154.0970   24.1660 C   0  0  0  0  0  0  0  0  0  0  0  0
   53.8190  152.7630   24.5440 C   0  0  0  0  0  0  0  0  0  0  0  0
   53.2440  152.4560   25.7760 C   0  0  0  0  0  0  0  0  0  0  0  0
   53.1170  151.1290   26.0840 O   0  0  0  0  0  0  0  0  0  0  0  0
   52.8280  153.4820   26.6290 C   0  0  0  0  0  0  0  0  0  0  0  0
   52.2200  153.2030   27.9290 C   0  0  0  0  0  0  0  0  0  0  0  0
   52.0520  152.0550   28.3370 O   0  0  0  0  0  0  0  0  0  0  0  0
   51.8060  154.3620   28.7550 C   0  0  0  0  0  0  0  0  0  0  0  0
   51.2450  154.0870   29.9880 O   0  0  0  0  0  0  0  0  0  0  0  0
   52.5200  157.9240   29.0850 C   0  0  0  0  0  0  0  0  0  0  0  0
   52.1660  159.0630   29.8120 C   0  0  0  0  0  0  0  0  0  0  0  0
   50.9380  159.1420   30.4900 C   0  0  0  0  0  0  0  0  0  0  0  0
   50.6210  160.4120   31.2550 C   0  0  0  0  0  0  0  0  0  0  0  0
   49.6180  161.3410   30.5400 C   0  0  0  0  0  0  0  0  0  0  0  0
   48.3990  161.5750   31.4370 C   0  0  0  0  0  0  0  0  0  0  0  0
   49.1620  160.7730   29.1940 C   0  0  0  0  0  0  0  0  0  0  0  0
   48.9059  158.0385   32.2358 H   0  0  0  0  0  0  0  0  0  0  0  0
   48.1643  158.9344   30.8668 H   0  0  0  0  0  0  0  0  0  0  0  0
   48.1698  157.1381   30.8668 H   0  0  0  0  0  0  0  0  0  0  0  0
   49.7473  156.0408   29.6642 H   0  0  0  0  0  0  0  0  0  0  0  0
   53.6924  156.1727   24.7183 H   0  0  0  0  0  0  0  0  0  0  0  0
   54.4349  154.3411   23.1947 H   0  0  0  0  0  0  0  0  0  0  0  0
   54.1451  151.9561   23.8713 H   0  0  0  0  0  0  0  0  0  0  0  0
   53.2190  150.8420   26.9700 H   0  0  0  0  0  0  0  0  0  0  0  0
   50.3160  153.9900   30.0690 H   0  0  0  0  0  0  0  0  0  0  0  0
   53.4892  157.8880   28.5661 H   0  0  0  0  0  0  0  0  0  0  0  0
   52.8617  159.9140   29.8545 H   0  0  0  0  0  0  0  0  0  0  0  0
   50.1978  160.1316   32.2308 H   0  0  0  0  0  0  0  0  0  0  0  0
   51.5634  160.9717   31.3473 H   0  0  0  0  0  0  0  0  0  0  0  0
   50.1329  162.2929   30.3431 H   0  0  0  0  0  0  0  0  0  0  0  0
   48.7037  161.5165   32.4923 H   0  0  0  0  0  0  0  0  0  0  0  0
   47.9782  162.5703   31.2315 H   0  0  0  0  0  0  0  0  0  0  0  0
   47.6395  160.8062   31.2315 H   0  0  0  0  0  0  0  0  0  0  0  0
   48.4818  159.9257   29.3651 H   0  0  0  0  0  0  0  0  0  0  0  0
   48.6379  161.5548   28.6247 H   0  0  0  0  0  0  0  0  0  0  0  0
   50.0386  160.4303   28.6247 H   0  0  0  0  0  0  0  0  0  0  0  0
  1  2  1  0
  2  3  2  0
  3  4  1  0
  4  5  1  0
  5  6  1  0
  6  7  1  0
  7  8  2  0
  8  9  1  0
  9 10  2  0
 10 11  1  0
 11 12  1  0
 11 13  2  0
 13 14  1  0
 14 15  2  0
 14 16  1  0
 16 17  1  0
  4 18  2  0
 18 19  1  0
 19 20  2  0
 20 21  1  0
 21 22  1  0
 22 23  1  0
 22 24  1  0
 20  2  1  0
 16  5  2  0
 13  7  1  0
  1 25  1  0
  1 26  1  0
  1 27  1  0
  3 28  1  0
  8 29  1  0
  9 30  1  0
 10 31  1  0
 12 32  1  0
 17 33  1  0
 18 34  1  0
 19 35  1  0
 21 36  1  0
 21 37  1  0
 22 38  1  0
 23 39  1  0
 23 40  1  0
 23 41  1  0
 24 42  1  0
 24 43  1  0
 24 44  1  0
M  END
>  <meeko>  (4) 
{"is_sidechain": [false], "free_energy": -10.084, "intermolecular_energy": -12.714, "internal_energy": 0.176}

$$$$
cand_051_out
     RDKit          3D

 44 46  0  0  0  0  0  0  0  0999 V2000
   52.0300  159.3520   30.0460 C   0  0  0  0  0  0  0  0  0  0  0  0
   51.4010  158.0350   29.6860 C   0  0  0  0  0  0  0  0  0  0  0  0
   52.0730  157.1920   28.7810 C   0  0  0  0  0  0  0  0  0  0  0  0
   51.5450  155.9500   28.3930 C   0  0  0  0  0  0  0  0  0  0  0  0
   52.2760  155.1090   27.4210 C   0  0  0  0  0  0  0  0  0  0  0  0
   51.9380  153.7640   27.5110 O   0  0  0  0  0  0  0  0  0  0  0  0
   52.5440  152.8700   26.6640 C   0  0  0  0  0  0  0  0  0  0  0  0
   52.1860  151.5270   26.7990 C   0  0  0  0  0  0  0  0  0  0  0  0
   52.7640  150.5660   25.9660 C   0  0  0  0  0  0  0  0  0  0  0  0
   53.6980  150.9460   25.0010 C   0  0  0  0  0  0  0  0  0  0  0  0
   54.0530  152.2860   24.8690 C   0  0  0  0  0  0  0  0  0  0  0  0
   54.9730  152.5890   23.9030 O   0  0  0  0  0  0  0  0  0  0  0  0
   53.4760  153.2480   25.7020 C   0  0  0  0  0  0  0  0  0  0  0  0
   53.8200  154.6660   25.5970 C   0  0  0  0  0  0  0  0  0  0  0  0
   54.6280  155.0800   24.7670 O   0  0  0  0  0  0  0  0  0  0  0  0
   53.1570  155.6040   26.5320 C   0  0  0  0  0  0  0  0  0  0  0  0
   53.4800  156.9430   26.4150 O   0  0  0  0  0  0  0  0  0  0  0  0
   50.3080  155.5650   28.9150 C   0  0  0  0  0  0  0  0  0  0  0  0
   49.6260  156.3900   29.8120 C   0  0  0  0  0  0  0  0  0  0  0  0
   50.1590  157.6270   30.2130 C   0  0  0  0  0  0  0  0  0  0  0  0
   49.3640  158.4680   31.1930 C   0  0  0  0  0  0  0  0  0  0  0  0
   48.2630  159.3240   30.5350 C   0  0  0  0  0  0  0  0  0  0  0  0
   48.8740  160.6120   29.9770 C   0  0  0  0  0  0  0  0  0  0  0  0
   47.1380  159.6710   31.5140 C   0  0  0  0  0  0  0  0  0  0  0  0
   52.0764  159.4491   31.1407 H   0  0  0  0  0  0  0  0  0  0  0  0
   53.0474  159.3982   29.6304 H   0  0  0  0  0  0  0  0  0  0  0  0
   51.4265  160.1724   29.6304 H   0  0  0  0  0  0  0  0  0  0  0  0
   53.0391  157.5152   28.3660 H   0  0  0  0  0  0  0  0  0  0  0  0
   51.4504  151.2264   27.5597 H   0  0  0  0  0  0  0  0  0  0  0  0
   52.4825  149.5078   26.0708 H   0  0  0  0  0  0  0  0  0  0  0  0
   54.1528  150.1884   24.3459 H   0  0  0  0  0  0  0  0  0  0  0  0
   55.2650  151.9260   23.3090 H   0  0  0  0  0  0  0  0  0  0  0  0
   54.0590  157.2270   25.7340 H   0  0  0  0  0  0  0  0  0  0  0  0
   49.8667  154.6026   28.6167 H   0  0  0  0  0  0  0  0  0  0  0  0
   48.6539  156.0657   30.2119 H   0  0  0  0  0  0  0  0  0  0  0  0
   48.8894  157.7943   31.9215 H   0  0  0  0  0  0  0  0  0  0  0  0
   50.0730  159.1664   31.6616 H   0  0  0  0  0  0  0  0  0  0  0  0
   47.8239  158.7288   29.7208 H   0  0  0  0  0  0  0  0  0  0  0  0
   49.1824  161.2620   30.8091 H   0  0  0  0  0  0  0  0  0  0  0  0
   49.7508  160.3648   29.3605 H   0  0  0  0  0  0  0  0  0  0  0  0
   48.1279  161.1347   29.3605 H   0  0  0  0  0  0  0  0  0  0  0  0
   47.5022  159.5587   32.5458 H   0  0  0  0  0  0  0  0  0  0  0  0
   46.8165  160.7101   31.3497 H   0  0  0  0  0  0  0  0  0  0  0  0
   46.2871  158.9936   31.3497 H   0  0  0  0  0  0  0  0  0  0  0  0
  1  2  1  0
  2  3  2  0
  3  4  1  0
  4  5  1  0
  5  6  1  0
  6  7  1  0
  7  8  2  0
  8  9  1  0
  9 10  2  0
 10 11  1  0
 11 12  1  0
 11 13  2  0
 13 14  1  0
 14 15  2  0
 14 16  1  0
 16 17  1  0
  4 18  2  0
 18 19  1  0
 19 20  2  0
 20 21  1  0
 21 22  1  0
 22 23  1  0
 22 24  1  0
 20  2  1  0
 16  5  2  0
 13  7  1  0
  1 25  1  0
  1 26  1  0
  1 27  1  0
  3 28  1  0
  8 29  1  0
  9 30  1  0
 10 31  1  0
 12 32  1  0
 17 33  1  0
 18 34  1  0
 19 35  1  0
 21 36  1  0
 21 37  1  0
 22 38  1  0
 23 39  1  0
 23 40  1  0
 23 41  1  0
 24 42  1  0
 24 43  1  0
 24 44  1  0
M  END
>  <meeko>  (5) 
{"is_sidechain": [false], "free_energy": -10.006, "intermolecular_energy": -12.43, "internal_energy": -0.011}

$$$$
cand_051_out
     RDKit          3D

 44 46  0  0  0  0  0  0  0  0999 V2000
   51.5730  152.6620   28.5560 C   0  0  0  0  0  0  0  0  0  0  0  0
   51.9750  154.0230   28.0570 C   0  0  0  0  0  0  0  0  0  0  0  0
   51.6480  155.1500   28.8350 C   0  0  0  0  0  0  0  0  0  0  0  0
   51.9860  156.4520   28.4320 C   0  0  0  0  0  0  0  0  0  0  0  0
   51.6000  157.6070   29.2700 C   0  0  0  0  0  0  0  0  0  0  0  0
   50.2680  157.5630   29.6680 O   0  0  0  0  0  0  0  0  0  0  0  0
   49.7760  158.5760   30.4520 C   0  0  0  0  0  0  0  0  0  0  0  0
   48.4310  158.4990   30.8160 C   0  0  0  0  0  0  0  0  0  0  0  0
   47.8680  159.4970   31.6150 C   0  0  0  0  0  0  0  0  0  0  0  0
   48.6490  160.5700   32.0500 C   0  0  0  0  0  0  0  0  0  0  0  0
   49.9910  160.6430   31.6850 C   0  0  0  0  0  0  0  0  0  0  0  0
   50.6980  161.7200   32.1460 O   0  0  0  0  0  0  0  0  0  0  0  0
   50.5540  159.6450   30.8850 C   0  0  0  0  0  0  0  0  0  0  0  0
   51.9590  159.6840   30.4790 C   0  0  0  0  0  0  0  0  0  0  0  0
   52.7130  160.5920   30.8280 O   0  0  0  0  0  0  0  0  0  0  0  0
   52.4570  158.5820   29.6240 C   0  0  0  0  0  0  0  0  0  0  0  0
   53.7890  158.6220   29.2580 O   0  0  0  0  0  0  0  0  0  0  0  0
   52.6470  156.6160   27.2130 C   0  0  0  0  0  0  0  0  0  0  0  0
   52.9770  155.5090   26.4280 C   0  0  0  0  0  0  0  0  0  0  0  0
   52.6530  154.2040   26.8350 C   0  0  0  0  0  0  0  0  0  0  0  0
   53.0470  153.0510   25.9330 C   0  0  0  0  0  0  0  0  0  0  0  0
   54.3550  153.2870   25.1490 C   0  0  0  0  0  0  0  0  0  0  0  0
   54.0690  153.2610   23.6450 C   0  0  0  0  0  0  0  0  0  0  0  0
   55.4270  152.2480   25.4870 C   0  0  0  0  0  0  0  0  0  0  0  0
   51.5725  152.6602   29.6560 H   0  0  0  0  0  0  0  0  0  0  0  0
   50.5649  152.4197   28.1884 H   0  0  0  0  0  0  0  0  0  0  0  0
   52.2876  151.9109   28.1884 H   0  0  0  0  0  0  0  0  0  0  0  0
   51.1127  155.0065   29.7852 H   0  0  0  0  0  0  0  0  0  0  0  0
   47.8153  157.6539   30.4744 H   0  0  0  0  0  0  0  0  0  0  0  0
   46.8078  159.4376   31.9020 H   0  0  0  0  0  0  0  0  0  0  0  0
   48.2053  161.3555   32.6793 H   0  0  0  0  0  0  0  0  0  0  0  0
   50.6830  162.5280   31.6720 H   0  0  0  0  0  0  0  0  0  0  0  0
   54.2590  159.4320   29.2870 H   0  0  0  0  0  0  0  0  0  0  0  0
   52.9103  157.6267   26.8677 H   0  0  0  0  0  0  0  0  0  0  0  0
   53.5006  155.6618   25.4728 H   0  0  0  0  0  0  0  0  0  0  0  0
   53.1737  152.1527   26.5551 H   0  0  0  0  0  0  0  0  0  0  0  0
   52.2448  152.9405   25.1885 H   0  0  0  0  0  0  0  0  0  0  0  0
   54.7432  154.2732   25.4434 H   0  0  0  0  0  0  0  0  0  0  0  0
   52.9860  153.1625   23.4794 H   0  0  0  0  0  0  0  0  0  0  0  0
   54.4264  154.1953   23.1876 H   0  0  0  0  0  0  0  0  0  0  0  0
   54.5891  152.4064   23.1876 H   0  0  0  0  0  0  0  0  0  0  0  0
   55.5193  152.1585   26.5795 H   0  0  0  0  0  0  0  0  0  0  0  0
   55.1409  151.2745   25.0622 H   0  0  0  0  0  0  0  0  0  0  0  0
   56.3911  152.5644   25.0622 H   0  0  0  0  0  0  0  0  0  0  0  0
  1  2  1  0
  2  3  2  0
  3  4  1  0
  4  5  1  0
  5  6  1  0
  6  7  1  0
  7  8  2  0
  8  9  1  0
  9 10  2  0
 10 11  1  0
 11 12  1  0
 11 13  2  0
 13 14  1  0
 14 15  2  0
 14 16  1  0
 16 17  1  0
  4 18  2  0
 18 19  1  0
 19 20  2  0
 20 21  1  0
 21 22  1  0
 22 23  1  0
 22 24  1  0
 20  2  1  0
 16  5  2  0
 13  7  1  0
  1 25  1  0
  1 26  1  0
  1 27  1  0
  3 28  1  0
  8 29  1  0
  9 30  1  0
 10 31  1  0
 12 32  1  0
 17 33  1  0
 18 34  1  0
 19 35  1  0
 21 36  1  0
 21 37  1  0
 22 38  1  0
 23 39  1  0
 23 40  1  0
 23 41  1  0
 24 42  1  0
 24 43  1  0
 24 44  1  0
M  END
>  <meeko>  (6) 
{"is_sidechain": [false], "free_energy": -10.006, "intermolecular_energy": -11.995, "internal_energy": -0.446}

$$$$
cand_051_out
     RDKit          3D

 44 46  0  0  0  0  0  0  0  0999 V2000
   53.7180  156.2470   25.9560 C   0  0  0  0  0  0  0  0  0  0  0  0
   52.9870  155.9960   27.2460 C   0  0  0  0  0  0  0  0  0  0  0  0
   52.4210  157.0920   27.9250 C   0  0  0  0  0  0  0  0  0  0  0  0
   51.7280  156.9360   29.1360 C   0  0  0  0  0  0  0  0  0  0  0  0
   51.1730  158.1200   29.8260 C   0  0  0  0  0  0  0  0  0  0  0  0
   49.8360  157.9620   30.1740 O   0  0  0  0  0  0  0  0  0  0  0  0
   49.1950  158.9880   30.8220 C   0  0  0  0  0  0  0  0  0  0  0  0
   47.8500  158.7930   31.1410 C   0  0  0  0  0  0  0  0  0  0  0  0
   47.1390  159.7970   31.8020 C   0  0  0  0  0  0  0  0  0  0  0  0
   47.7710  160.9940   32.1440 C   0  0  0  0  0  0  0  0  0  0  0  0
   49.1130  161.1850   31.8250 C   0  0  0  0  0  0  0  0  0  0  0  0
   49.6700  162.3800   32.1900 O   0  0  0  0  0  0  0  0  0  0  0  0
   49.8250  160.1810   31.1630 C   0  0  0  0  0  0  0  0  0  0  0  0
   51.2350  160.3410   30.8090 C   0  0  0  0  0  0  0  0  0  0  0  0
   51.8630  161.3630   31.0840 O   0  0  0  0  0  0  0  0  0  0  0  0
   51.8960  159.2200   30.1020 C   0  0  0  0  0  0  0  0  0  0  0  0
   53.2330  159.3770   29.7840 O   0  0  0  0  0  0  0  0  0  0  0  0
   51.6240  155.6520   29.6780 C   0  0  0  0  0  0  0  0  0  0  0  0
   52.1800  154.5540   29.0180 C   0  0  0  0  0  0  0  0  0  0  0  0
   52.8620  154.7060   27.7980 C   0  0  0  0  0  0  0  0  0  0  0  0
   53.4360  153.4670   27.1380 C   0  0  0  0  0  0  0  0  0  0  0  0
   52.5850  152.9270   25.9700 C   0  0  0  0  0  0  0  0  0  0  0  0
   52.0280  151.5470   26.3300 C   0  0  0  0  0  0  0  0  0  0  0  0
   53.3830  152.8360   24.6680 C   0  0  0  0  0  0  0  0  0  0  0  0
   54.7377  156.5971   26.1745 H   0  0  0  0  0  0  0  0  0  0  0  0
   53.7672  155.3143   25.3750 H   0  0  0  0  0  0  0  0  0  0  0  0
   53.1839  157.0132   25.3750 H   0  0  0  0  0  0  0  0  0  0  0  0
   52.5247  158.0989   27.4945 H   0  0  0  0  0  0  0  0  0  0  0  0
   47.3511  157.8502   30.8722 H   0  0  0  0  0  0  0  0  0  0  0  0
   46.0791  159.6444   32.0536 H   0  0  0  0  0  0  0  0  0  0  0  0
   47.2102  161.7844   32.6643 H   0  0  0  0  0  0  0  0  0  0  0  0
   50.4260  162.3950   32.7440 H   0  0  0  0  0  0  0  0  0  0  0  0
   53.8820  158.8680   30.2280 H   0  0  0  0  0  0  0  0  0  0  0  0
   51.0992  155.5048   30.6335 H   0  0  0  0  0  0  0  0  0  0  0  0
   52.0825  153.5518   29.4608 H   0  0  0  0  0  0  0  0  0  0  0  0
   54.4365  153.7125   26.7524 H   0  0  0  0  0  0  0  0  0  0  0  0
   53.4594  152.6794   27.9055 H   0  0  0  0  0  0  0  0  0  0  0  0
   51.7607  153.6367   25.8060 H   0  0  0  0  0  0  0  0  0  0  0  0
   51.9859  151.4426   27.4242 H   0  0  0  0  0  0  0  0  0  0  0  0
   51.0161  151.4396   25.9122 H   0  0  0  0  0  0  0  0  0  0  0  0
   52.6818  150.7673   25.9122 H   0  0  0  0  0  0  0  0  0  0  0  0
   54.4512  152.7142   24.9004 H   0  0  0  0  0  0  0  0  0  0  0  0
   53.0340  151.9718   24.0837 H   0  0  0  0  0  0  0  0  0  0  0  0
   53.2375  153.7566   24.0837 H   0  0  0  0  0  0  0  0  0  0  0  0
  1  2  1  0
  2  3  2  0
  3  4  1  0
  4  5  1  0
  5  6  1  0
  6  7  1  0
  7  8  2  0
  8  9  1  0
  9 10  2  0
 10 11  1  0
 11 12  1  0
 11 13  2  0
 13 14  1  0
 14 15  2  0
 14 16  1  0
 16 17  1  0
  4 18  2  0
 18 19  1  0
 19 20  2  0
 20 21  1  0
 21 22  1  0
 22 23  1  0
 22 24  1  0
 20  2  1  0
 16  5  2  0
 13  7  1  0
  1 25  1  0
  1 26  1  0
  1 27  1  0
  3 28  1  0
  8 29  1  0
  9 30  1  0
 10 31  1  0
 12 32  1  0
 17 33  1  0
 18 34  1  0
 19 35  1  0
 21 36  1  0
 21 37  1  0
 22 38  1  0
 23 39  1  0
 23 40  1  0
 23 41  1  0
 24 42  1  0
 24 43  1  0
 24 44  1  0
M  END
>  <meeko>  (7) 
{"is_sidechain": [false], "free_energy": -9.628, "intermolecular_energy": -11.586, "internal_energy": -0.389}

$$$$
cand_051_out
     RDKit          3D

 44 46  0  0  0  0  0  0  0  0999 V2000
   51.8880  152.8340   28.3670 C   0  0  0  0  0  0  0  0  0  0  0  0
   52.1710  154.2820   28.0750 C   0  0  0  0  0  0  0  0  0  0  0  0
   51.5770  155.2640   28.8900 C   0  0  0  0  0  0  0  0  0  0  0  0
   51.7920  156.6350   28.6750 C   0  0  0  0  0  0  0  0  0  0  0  0
   51.1260  157.6300   29.5430 C   0  0  0  0  0  0  0  0  0  0  0  0
   51.9300  158.7320   29.8130 O   0  0  0  0  0  0  0  0  0  0  0  0
   51.4350  159.7340   30.6090 C   0  0  0  0  0  0  0  0  0  0  0  0
   52.2800  160.8150   30.8660 C   0  0  0  0  0  0  0  0  0  0  0  0
   51.8360  161.8700   31.6660 C   0  0  0  0  0  0  0  0  0  0  0  0
   50.5510  161.8450   32.2090 C   0  0  0  0  0  0  0  0  0  0  0  0
   49.7090  160.7660   31.9500 C   0  0  0  0  0  0  0  0  0  0  0  0
   48.4620  160.8060   32.5120 O   0  0  0  0  0  0  0  0  0  0  0  0
   50.1520  159.7090   31.1490 C   0  0  0  0  0  0  0  0  0  0  0  0
   49.3010  158.5570   30.8530 C   0  0  0  0  0  0  0  0  0  0  0  0
   48.1540  158.4660   31.2870 O   0  0  0  0  0  0  0  0  0  0  0  0
   49.8690  157.4870   30.0000 C   0  0  0  0  0  0  0  0  0  0  0  0
   49.0510  156.4090   29.7160 O   0  0  0  0  0  0  0  0  0  0  0  0
   52.6050  157.0170   27.6050 C   0  0  0  0  0  0  0  0  0  0  0  0
   53.2000  156.0560   26.7860 C   0  0  0  0  0  0  0  0  0  0  0  0
   52.9990  154.6840   27.0070 C   0  0  0  0  0  0  0  0  0  0  0  0
   53.6820  153.6990   26.0780 C   0  0  0  0  0  0  0  0  0  0  0  0
   53.8040  154.1920   24.6220 C   0  0  0  0  0  0  0  0  0  0  0  0
   53.9720  152.9950   23.6820 C   0  0  0  0  0  0  0  0  0  0  0  0
   54.9760  155.1600   24.4360 C   0  0  0  0  0  0  0  0  0  0  0  0
   51.8576  152.6786   29.4555 H   0  0  0  0  0  0  0  0  0  0  0  0
   50.9182  152.5545   27.9295 H   0  0  0  0  0  0  0  0  0  0  0  0
   52.6812  152.2099   27.9295 H   0  0  0  0  0  0  0  0  0  0  0  0
   50.9260  154.9486   29.7187 H   0  0  0  0  0  0  0  0  0  0  0  0
   53.2936  160.8358   30.4392 H   0  0  0  0  0  0  0  0  0  0  0  0
   52.5008  162.7226   31.8685 H   0  0  0  0  0  0  0  0  0  0  0  0
   50.2035  162.6759   32.8405 H   0  0  0  0  0  0  0  0  0  0  0  0
   48.0650  160.0200   32.8290 H   0  0  0  0  0  0  0  0  0  0  0  0
   49.2410  155.8580   28.9820 H   0  0  0  0  0  0  0  0  0  0  0  0
   52.7778  158.0850   27.4061 H   0  0  0  0  0  0  0  0  0  0  0  0
   53.8389  156.3798   25.9511 H   0  0  0  0  0  0  0  0  0  0  0  0
   54.6938  153.5044   26.4633 H   0  0  0  0  0  0  0  0  0  0  0  0
   53.0560  152.7947   26.0567 H   0  0  0  0  0  0  0  0  0  0  0  0
   52.8798  154.7370   24.3795 H   0  0  0  0  0  0  0  0  0  0  0  0
   54.1007  152.0779   24.2756 H   0  0  0  0  0  0  0  0  0  0  0  0
   53.0786  152.8988   23.0476 H   0  0  0  0  0  0  0  0  0  0  0  0
   54.8574  153.1484   23.0476 H   0  0  0  0  0  0  0  0  0  0  0  0
   55.3537  155.4720   25.4209 H   0  0  0  0  0  0  0  0  0  0  0  0
   55.7800  154.6592   23.8768 H   0  0  0  0  0  0  0  0  0  0  0  0
   54.6361  156.0442   23.8768 H   0  0  0  0  0  0  0  0  0  0  0  0
  1  2  1  0
  2  3  2  0
  3  4  1  0
  4  5  1  0
  5  6  1  0
  6  7  1  0
  7  8  2  0
  8  9  1  0
  9 10  2  0
 10 11  1  0
 11 12  1  0
 11 13  2  0
 13 14  1  0
 14 15  2  0
 14 16  1  0
 16 17  1  0
  4 18  2  0
 18 19  1  0
 19 20  2  0
 20 21  1  0
 21 22  1  0
 22 23  1  0
 22 24  1  0
 20  2  1  0
 16  5  2  0
 13  7  1  0
  1 25  1  0
  1 26  1  0
  1 27  1  0
  3 28  1  0
  8 29  1  0
  9 30  1  0
 10 31  1  0
 12 32  1  0
 17 33  1  0
 18 34  1  0
 19 35  1  0
 21 36  1  0
 21 37  1  0
 22 38  1  0
 23 39  1  0
 23 40  1  0
 23 41  1  0
 24 42  1  0
 24 43  1  0
 24 44  1  0
M  END
>  <meeko>  (8) 
{"is_sidechain": [false], "free_energy": -9.373, "intermolecular_energy": -11.86, "internal_energy": 0.2}

$$$$
cand_051_out
     RDKit          3D

 44 46  0  0  0  0  0  0  0  0999 V2000
   49.0090  156.4920   30.0920 C   0  0  0  0  0  0  0  0  0  0  0  0
   50.3510  156.8490   29.5140 C   0  0  0  0  0  0  0  0  0  0  0  0
   50.9320  155.9800   28.5700 C   0  0  0  0  0  0  0  0  0  0  0  0
   52.1830  156.2440   27.9900 C   0  0  0  0  0  0  0  0  0  0  0  0
   52.7630  155.2900   27.0220 C   0  0  0  0  0  0  0  0  0  0  0  0
   52.3700  153.9770   27.2580 O   0  0  0  0  0  0  0  0  0  0  0  0
   52.8380  152.9860   26.4310 C   0  0  0  0  0  0  0  0  0  0  0  0
   52.4290  151.6810   26.7120 C   0  0  0  0  0  0  0  0  0  0  0  0
   52.8670  150.6270   25.9080 C   0  0  0  0  0  0  0  0  0  0  0  0
   53.7110  150.8760   24.8240 C   0  0  0  0  0  0  0  0  0  0  0  0
   54.1160  152.1790   24.5460 C   0  0  0  0  0  0  0  0  0  0  0  0
   54.9420  152.3520   23.4690 O   0  0  0  0  0  0  0  0  0  0  0  0
   53.6790  153.2350   25.3510 C   0  0  0  0  0  0  0  0  0  0  0  0
   54.0810  154.6170   25.0930 C   0  0  0  0  0  0  0  0  0  0  0  0
   54.8150  154.9180   24.1540 O   0  0  0  0  0  0  0  0  0  0  0  0
   53.5680  155.6620   26.0100 C   0  0  0  0  0  0  0  0  0  0  0  0
   53.9430  156.9670   25.7490 O   0  0  0  0  0  0  0  0  0  0  0  0
   52.8660  157.3960   28.3880 C   0  0  0  0  0  0  0  0  0  0  0  0
   52.3050  158.2680   29.3240 C   0  0  0  0  0  0  0  0  0  0  0  0
   51.0470  158.0130   29.8950 C   0  0  0  0  0  0  0  0  0  0  0  0
   50.5010  159.0070   30.9020 C   0  0  0  0  0  0  0  0  0  0  0  0
   50.5530  160.4740   30.4260 C   0  0  0  0  0  0  0  0  0  0  0  0
   51.5110  161.2720   31.3140 C   0  0  0  0  0  0  0  0  0  0  0  0
   49.1720  161.1340   30.4360 C   0  0  0  0  0  0  0  0  0  0  0  0
   49.0670  156.5074   31.1904 H   0  0  0  0  0  0  0  0  0  0  0  0
   48.2584  157.2217   29.7542 H   0  0  0  0  0  0  0  0  0  0  0  0
   48.7202  155.4858   29.7542 H   0  0  0  0  0  0  0  0  0  0  0  0
   50.3900  155.0682   28.2788 H   0  0  0  0  0  0  0  0  0  0  0  0
   51.7631  151.4837   27.5650 H   0  0  0  0  0  0  0  0  0  0  0  0
   52.5465  149.5982   26.1290 H   0  0  0  0  0  0  0  0  0  0  0  0
   54.0552  150.0448   24.1910 H   0  0  0  0  0  0  0  0  0  0  0  0
   54.8540  153.1110   22.9270 H   0  0  0  0  0  0  0  0  0  0  0  0
   53.9080  157.2980   24.8730 H   0  0  0  0  0  0  0  0  0  0  0  0
   53.8547  157.6184   27.9603 H   0  0  0  0  0  0  0  0  0  0  0  0
   52.8587  159.1714   29.6196 H   0  0  0  0  0  0  0  0  0  0  0  0
   49.4525  158.7478   31.1106 H   0  0  0  0  0  0  0  0  0  0  0  0
   51.1394  158.9390   31.7952 H   0  0  0  0  0  0  0  0  0  0  0  0
   50.9131  160.4718   29.3866 H   0  0  0  0  0  0  0  0  0  0  0  0
   51.2782  161.0781   32.3715 H   0  0  0  0  0  0  0  0  0  0  0  0
   52.5465  160.9656   31.1043 H   0  0  0  0  0  0  0  0  0  0  0  0
   51.3968  162.3458   31.1043 H   0  0  0  0  0  0  0  0  0  0  0  0
   48.8473  161.2892   31.4755 H   0  0  0  0  0  0  0  0  0  0  0  0
   49.2254  162.1039   29.9199 H   0  0  0  0  0  0  0  0  0  0  0  0
   48.4508  160.4832   29.9199 H   0  0  0  0  0  0  0  0  0  0  0  0
  1  2  1  0
  2  3  2  0
  3  4  1  0
  4  5  1  0
  5  6  1  0
  6  7  1  0
  7  8  2  0
  8  9  1  0
  9 10  2  0
 10 11  1  0
 11 12  1  0
 11 13  2  0
 13 14  1  0
 14 15  2  0
 14 16  1  0
 16 17  1  0
  4 18  2  0
 18 19  1  0
 19 20  2  0
 20 21  1  0
 21 22  1  0
 22 23  1  0
 22 24  1  0
 20  2  1  0
 16  5  2  0
 13  7  1  0
  1 25  1  0
  1 26  1  0
  1 27  1  0
  3 28  1  0
  8 29  1  0
  9 30  1  0
 10 31  1  0
 12 32  1  0
 17 33  1  0
 18 34  1  0
 19 35  1  0
 21 36  1  0
 21 37  1  0
 22 38  1  0
 23 39  1  0
 23 40  1  0
 23 41  1  0
 24 42  1  0
 24 43  1  0
 24 44  1  0
M  END
>  <meeko>  (9) 
{"is_sidechain": [false], "free_energy": -8.966, "intermolecular_energy": -10.908, "internal_energy": -0.25}

$$$$
