cand_006_out
     RDKit          3D

 47 50  0  0  0  0  0  0  0  0999 V2000
   52.2800  152.4450   27.2940 C   0  0  0  0  0  0  0  0  0  0  0  0
   52.0100  153.7980   27.8950 C   0  0  0  0  0  0  0  0  0  0  0  0
   51.3110  153.8930   29.1060 C   0  0  0  0  0  0  0  0  0  0  0  0
   51.0530  155.1370   29.6830 C   0  0  0  0  0  0  0  0  0  0  0  0
   51.4930  156.3150   29.0680 C   0  0  0  0  0  0  0  0  0  0  0  0
   51.1880  157.6240   29.6820 C   0  0  0  0  0  0  0  0  0  0  0  0
   49.8920  157.6990   30.1790 O   0  0  0  0  0  0  0  0  0  0  0  0
   49.4760  158.8610   30.7780 C   0  0  0  0  0  0  0  0  0  0  0  0
   48.1630  158.8960   31.2490 C   0  0  0  0  0  0  0  0  0  0  0  0
   47.6760  160.0480   31.8690 C   0  0  0  0  0  0  0  0  0  0  0  0
   48.5030  161.1630   32.0210 C   0  0  0  0  0  0  0  0  0  0  0  0
   49.8130  161.1260   31.5510 C   0  0  0  0  0  0  0  0  0  0  0  0
   50.5670  162.2520   31.7320 O   0  0  0  0  0  0  0  0  0  0  0  0
   50.2990  159.9720   30.9280 C   0  0  0  0  0  0  0  0  0  0  0  0
   51.6690  159.8910   30.4200 C   0  0  0  0  0  0  0  0  0  0  0  0
   52.4580  160.8270   30.5220 O   0  0  0  0  0  0  0  0  0  0  0  0
   52.0830  158.6260   29.7690 C   0  0  0  0  0  0  0  0  0  0  0  0
   53.3840  158.5560   29.3050 O   0  0  0  0  0  0  0  0  0  0  0  0
   52.1830  156.2150   27.8500 C   0  0  0  0  0  0  0  0  0  0  0  0
   52.4540  154.9700   27.2540 C   0  0  0  0  0  0  0  0  0  0  0  0
   53.1600  154.8600   26.0330 N   0  0  0  0  0  0  0  0  0  0  0  0
   54.0270  153.6700   25.9980 C   0  0  0  0  0  0  0  0  0  0  0  0
   54.5720  153.4920   24.5810 C   0  0  0  0  0  0  0  0  0  0  0  0
   55.2920  154.7530   24.1030 C   0  0  0  0  0  0  0  0  0  0  0  0
   54.3940  155.9820   24.2470 C   0  0  0  0  0  0  0  0  0  0  0  0
   53.8540  156.1060   25.6720 C   0  0  0  0  0  0  0  0  0  0  0  0
   52.4268  151.7092   28.0984 H   0  0  0  0  0  0  0  0  0  0  0  0
   51.4245  152.1427   26.6722 H   0  0  0  0  0  0  0  0  0  0  0  0
   53.1860  152.4942   26.6722 H   0  0  0  0  0  0  0  0  0  0  0  0
   50.9623  152.9777   29.6066 H   0  0  0  0  0  0  0  0  0  0  0  0
   50.4980  155.1926   30.6311 H   0  0  0  0  0  0  0  0  0  0  0  0
   47.5124  158.0168   31.1319 H   0  0  0  0  0  0  0  0  0  0  0  0
   46.6402  160.0775   32.2381 H   0  0  0  0  0  0  0  0  0  0  0  0
   48.1197  162.0698   32.5117 H   0  0  0  0  0  0  0  0  0  0  0  0
   50.2020  163.0950   31.5470 H   0  0  0  0  0  0  0  0  0  0  0  0
   53.9880  159.2450   29.4990 H   0  0  0  0  0  0  0  0  0  0  0  0
   52.5206  157.1339   27.3485 H   0  0  0  0  0  0  0  0  0  0  0  0
   54.8630  153.8021   26.7006 H   0  0  0  0  0  0  0  0  0  0  0  0
   53.4485  152.7804   26.2879 H   0  0  0  0  0  0  0  0  0  0  0  0
   55.2794  152.6497   24.5719 H   0  0  0  0  0  0  0  0  0  0  0  0
   53.7268  153.2961   23.9048 H   0  0  0  0  0  0  0  0  0  0  0  0
   56.2011  154.8987   24.7050 H   0  0  0  0  0  0  0  0  0  0  0  0
   55.5502  154.6290   23.0409 H   0  0  0  0  0  0  0  0  0  0  0  0
   54.9765  156.8829   24.0040 H   0  0  0  0  0  0  0  0  0  0  0  0
   53.5424  155.8746   23.5591 H   0  0  0  0  0  0  0  0  0  0  0  0
   54.6879  156.2784   26.3684 H   0  0  0  0  0  0  0  0  0  0  0  0
   53.1529  156.9516   25.7307 H   0  0  0  0  0  0  0  0  0  0  0  0
  1  2  1  0
  2  3  2  0
  3  4  1  0
  4  5  2  0
  5  6  1  0
  6  7  1  0
  7  8  1  0
  8  9  2  0
  9 10  1  0
 10 11  2  0
 11 12  1  0
 12 13  1  0
 12 14  2  0
 14 15  1  0
 15 16  2  0
 15 17  1  0
 17 18  1  0
  5 19  1  0
 19 20  2  0
 20 21  1  0
 21 22  1  0
 22 23  1  0
 23 24  1  0
 24 25  1  0
 25 26  1  0
 20  2  1  0
 26 21  1  0
 17  6  2  0
 14  8  1  0
  1 27  1  0
  1 28  1  0
  1 29  1  0
  3 30  1  0
  4 31  1  0
  9 32  1  0
 10 33  1  0
 11 34  1  0
 13 35  1  0
 18 36  1  0
 19 37  1  0
 22 38  1  0
 22 39  1  0
 23 40  1  0
 23 41  1  0
 24 42  1  0
 24 43  1  0
 25 44  1  0
 25 45  1  0
 26 46  1  0
 26 47  1  0
M  END
>  <meeko>  (1) 
{"is_sidechain": [false], "free_energy": -11.253, "intermolecular_energy": -13.227, "internal_energy": 0.948}

$$$$
cand_006_out
     RDKit          3D

 47 50  0  0  0  0  0  0  0  0999 V2000
   51.4290  161.4750   31.2660 C   0  0  0  0  0  0  0  0  0  0  0  0
   51.5880  160.1520   30.5680 C   0  0  0  0  0  0  0  0  0  0  0  0
   52.8550  159.7450   30.1290 C   0  0  0  0  0  0  0  0  0  0  0  0
   53.0250  158.5200   29.4830 C   0  0  0  0  0  0  0  0  0  0  0  0
   51.9350  157.6690   29.2650 C   0  0  0  0  0  0  0  0  0  0  0  0
   52.1320  156.3870   28.5560 C   0  0  0  0  0  0  0  0  0  0  0  0
   52.6490  156.5510   27.2760 O   0  0  0  0  0  0  0  0  0  0  0  0
   52.8820  155.4400   26.5070 C   0  0  0  0  0  0  0  0  0  0  0  0
   53.3870  155.6530   25.2230 C   0  0  0  0  0  0  0  0  0  0  0  0
   53.6480  154.5650   24.3880 C   0  0  0  0  0  0  0  0  0  0  0  0
   53.4050  153.2650   24.8360 C   0  0  0  0  0  0  0  0  0  0  0  0
   52.9020  153.0550   26.1170 C   0  0  0  0  0  0  0  0  0  0  0  0
   52.6880  151.7570   26.4920 O   0  0  0  0  0  0  0  0  0  0  0  0
   52.6390  154.1450   26.9520 C   0  0  0  0  0  0  0  0  0  0  0  0
   52.1100  153.9690   28.3050 C   0  0  0  0  0  0  0  0  0  0  0  0
   51.8770  152.8560   28.7740 O   0  0  0  0  0  0  0  0  0  0  0  0
   51.8590  155.1890   29.1070 C   0  0  0  0  0  0  0  0  0  0  0  0
   51.3710  155.0090   30.3890 O   0  0  0  0  0  0  0  0  0  0  0  0
   50.6670  158.0850   29.6960 C   0  0  0  0  0  0  0  0  0  0  0  0
   50.4750  159.3160   30.3510 C   0  0  0  0  0  0  0  0  0  0  0  0
   49.2020  159.7370   30.8010 N   0  0  0  0  0  0  0  0  0  0  0  0
   49.1040  159.7400   32.2700 C   0  0  0  0  0  0  0  0  0  0  0  0
   47.7980  160.4200   32.6820 C   0  0  0  0  0  0  0  0  0  0  0  0
   46.5940  159.7510   32.0190 C   0  0  0  0  0  0  0  0  0  0  0  0
   46.7770  159.6770   30.5030 C   0  0  0  0  0  0  0  0  0  0  0  0
   48.1050  159.0130   30.1390 C   0  0  0  0  0  0  0  0  0  0  0  0
   51.4477  161.3197   32.3548 H   0  0  0  0  0  0  0  0  0  0  0  0
   52.2533  162.1436   30.9768 H   0  0  0  0  0  0  0  0  0  0  0  0
   50.4698  161.9292   30.9768 H   0  0  0  0  0  0  0  0  0  0  0  0
   53.7245  160.3979   30.2954 H   0  0  0  0  0  0  0  0  0  0  0  0
   54.0265  158.2196   29.1413 H   0  0  0  0  0  0  0  0  0  0  0  0
   53.5790  156.6768   24.8696 H   0  0  0  0  0  0  0  0  0  0  0  0
   54.0455  154.7321   23.3760 H   0  0  0  0  0  0  0  0  0  0  0  0
   53.6107  152.4081   24.1777 H   0  0  0  0  0  0  0  0  0  0  0  0
   53.0540  151.0580   25.9880 H   0  0  0  0  0  0  0  0  0  0  0  0
   50.8120  154.2830   30.5780 H   0  0  0  0  0  0  0  0  0  0  0  0
   49.7998  157.4322   29.5175 H   0  0  0  0  0  0  0  0  0  0  0  0
   49.1139  158.7049   32.6421 H   0  0  0  0  0  0  0  0  0  0  0  0
   49.9576  160.2863   32.6976 H   0  0  0  0  0  0  0  0  0  0  0  0
   47.6884  160.3545   33.7746 H   0  0  0  0  0  0  0  0  0  0  0  0
   47.8349  161.4707   32.3584 H   0  0  0  0  0  0  0  0  0  0  0  0
   46.4830  158.7321   32.4185 H   0  0  0  0  0  0  0  0  0  0  0  0
   45.6964  160.3488   32.2358 H   0  0  0  0  0  0  0  0  0  0  0  0
   45.9524  159.0916   30.0701 H   0  0  0  0  0  0  0  0  0  0  0  0
   46.7777  160.7011   30.1015 H   0  0  0  0  0  0  0  0  0  0  0  0
   48.0981  157.9660   30.4763 H   0  0  0  0  0  0  0  0  0  0  0  0
   48.2470  159.0410   29.0486 H   0  0  0  0  0  0  0  0  0  0  0  0
  1  2  1  0
  2  3  2  0
  3  4  1  0
  4  5  2  0
  5  6  1  0
  6  7  1  0
  7  8  1  0
  8  9  2  0
  9 10  1  0
 10 11  2  0
 11 12  1  0
 12 13  1  0
 12 14  2  0
 14 15  1  0
 15 16  2  0
 15 17  1  0
 17 18  1  0
  5 19  1  0
 19 20  2  0
 20 21  1  0
 21 22  1  0
 22 23  1  0
 23 24  1  0
 24 25  1  0
 25 26  1  0
 20  2  1  0
 26 21  1  0
 17  6  2  0
 14  8  1  0
  1 27  1  0
  1 28  1  0
  1 29  1  0
  3 30  1  0
  4 31  1  0
  9 32  1  0
 10 33  1  0
 11 34  1  0
 13 35  1  0
 18 36  1  0
 19 37  1  0
 22 38  1  0
 22 39  1  0
 23 40  1  0
 23 41  1  0
 24 42  1  0
 24 43  1  0
 25 44  1  0
 25 45  1  0
 26 46  1  0
 26 47  1  0
M  END
>  <meeko>  (2) 
{"is_sidechain": [false], "free_energy": -9.821, "intermolecular_energy": -10.395, "internal_energy": -0.2}

$$$$
cand_006_out
     RDKit          3D

 47 50  0  0  0  0  0  0  0  0999 V2000
   53.3180  152.5440   27.1690 C   0  0  0  0  0  0  0  0  0  0  0  0
   52.6600  153.7540   27.7740 C   0  0  0  0  0  0  0  0  0  0  0  0
   51.8060  153.6030   28.8750 C   0  0  0  0  0  0  0  0  0  0  0  0
   51.1890  154.7120   29.4540 C   0  0  0  0  0  0  0  0  0  0  0  0
   51.4150  155.9990   28.9520 C   0  0  0  0  0  0  0  0  0  0  0  0
   50.7320  157.1590   29.5640 C   0  0  0  0  0  0  0  0  0  0  0  0
   51.6060  158.1880   29.8970 O   0  0  0  0  0  0  0  0  0  0  0  0
   51.1030  159.3260   30.4720 C   0  0  0  0  0  0  0  0  0  0  0  0
   52.0190  160.3260   30.8030 C   0  0  0  0  0  0  0  0  0  0  0  0
   51.5740  161.5110   31.3920 C   0  0  0  0  0  0  0  0  0  0  0  0
   50.2140  161.6970   31.6480 C   0  0  0  0  0  0  0  0  0  0  0  0
   49.3020  160.6990   31.3160 C   0  0  0  0  0  0  0  0  0  0  0  0
   47.9860  160.9470   31.5940 O   0  0  0  0  0  0  0  0  0  0  0  0
   49.7490  159.5110   30.7290 C   0  0  0  0  0  0  0  0  0  0  0  0
   48.8240  158.4370   30.3650 C   0  0  0  0  0  0  0  0  0  0  0  0
   47.6130  158.5280   30.5520 O   0  0  0  0  0  0  0  0  0  0  0  0
   49.4000  157.2160   29.7540 C   0  0  0  0  0  0  0  0  0  0  0  0
   48.5150  156.2120   29.4030 O   0  0  0  0  0  0  0  0  0  0  0  0
   52.2610  156.1450   27.8430 C   0  0  0  0  0  0  0  0  0  0  0  0
   52.8950  155.0390   27.2460 C   0  0  0  0  0  0  0  0  0  0  0  0
   53.7600  155.1780   26.1370 N   0  0  0  0  0  0  0  0  0  0  0  0
   53.7910  156.5580   25.6250 C   0  0  0  0  0  0  0  0  0  0  0  0
   54.9090  156.6810   24.5890 C   0  0  0  0  0  0  0  0  0  0  0  0
   54.7450  155.6490   23.4740 C   0  0  0  0  0  0  0  0  0  0  0  0
   54.6160  154.2390   24.0490 C   0  0  0  0  0  0  0  0  0  0  0  0
   53.5050  154.1690   25.0960 C   0  0  0  0  0  0  0  0  0  0  0  0
   53.6776  151.8827   27.9711 H   0  0  0  0  0  0  0  0  0  0  0  0
   52.5897  152.0032   26.5468 H   0  0  0  0  0  0  0  0  0  0  0  0
   54.1678  152.8614   26.5468 H   0  0  0  0  0  0  0  0  0  0  0  0
   51.6204  152.5999   29.2866 H   0  0  0  0  0  0  0  0  0  0  0  0
   50.5176  154.5737   30.3143 H   0  0  0  0  0  0  0  0  0  0  0  0
   53.0903  160.1805   30.6000 H   0  0  0  0  0  0  0  0  0  0  0  0
   52.2954  162.2988   31.6546 H   0  0  0  0  0  0  0  0  0  0  0  0
   49.8637  162.6311   32.1115 H   0  0  0  0  0  0  0  0  0  0  0  0
   47.5680  160.5110   32.3100 H   0  0  0  0  0  0  0  0  0  0  0  0
   48.5350  155.8520   28.5390 H   0  0  0  0  0  0  0  0  0  0  0  0
   52.4335  157.1495   27.4291 H   0  0  0  0  0  0  0  0  0  0  0  0
   52.8257  156.7988   25.1559 H   0  0  0  0  0  0  0  0  0  0  0  0
   53.9746  157.2573   26.4540 H   0  0  0  0  0  0  0  0  0  0  0  0
   54.8829  157.6897   24.1510 H   0  0  0  0  0  0  0  0  0  0  0  0
   55.8709  156.5011   25.0914 H   0  0  0  0  0  0  0  0  0  0  0  0
   53.8403  155.8857   22.8948 H   0  0  0  0  0  0  0  0  0  0  0  0
   55.6353  155.6848   22.8289 H   0  0  0  0  0  0  0  0  0  0  0  0
   54.3848  153.5385   23.2330 H   0  0  0  0  0  0  0  0  0  0  0  0
   55.5673  153.9712   24.5320 H   0  0  0  0  0  0  0  0  0  0  0  0
   52.5350  154.3701   24.6178 H   0  0  0  0  0  0  0  0  0  0  0  0
   53.4848  153.1666   25.5485 H   0  0  0  0  0  0  0  0  0  0  0  0
  1  2  1  0
  2  3  2  0
  3  4  1  0
  4  5  2  0
  5  6  1  0
  6  7  1  0
  7  8  1  0
  8  9  2  0
  9 10  1  0
 10 11  2  0
 11 12  1  0
 12 13  1  0
 12 14  2  0
 14 15  1  0
 15 16  2  0
 15 17  1  0
 17 18  1  0
  5 19  1  0
 19 20  2  0
 20 21  1  0
 21 22  1  0
 22 23  1  0
 23 24  1  0
 24 25  1  0
 25 26  1  0
 20  2  1  0
 26 21  1  0
 17  6  2  0
 14  8  1  0
  1 27  1  0
  1 28  1  0
  1 29  1  0
  3 30  1  0
  4 31  1  0
  9 32  1  0
 10 33  1  0
 11 34  1  0
 13 35  1  0
 18 36  1  0
 19 37  1  0
 22 38  1  0
 22 39  1  0
 23 40  1  0
 23 41  1  0
 24 42  1  0
 24 43  1  0
 25 44  1  0
 25 45  1  0
 26 46  1  0
 26 47  1  0
M  END
>  <meeko>  (3) 
{"is_sidechain": [false], "free_energy": -8.978, "intermolecular_energy": -10.202, "internal_energy": 0.597}

$$$$
