cand_032_out
     RDKit          3D

 43 45  0  0  0  0  0  0  0  0999 V2000
   54.8320  156.9170   24.3000 C   0  0  0  0  0  0  0  0  0  0  0  0
   53.4740  156.2480   24.4650 C   0  0  0  0  0  0  0  0  0  0  0  0
   53.6310  154.9200   25.0910 N   0  0  0  0  0  0  0  0  0  0  0  0
   55.0120  154.4220   25.1510 C   0  0  0  0  0  0  0  0  0  0  0  0
   53.0040  154.8360   26.3560 C   0  0  0  0  0  0  0  0  0  0  0  0
   52.6530  155.9930   27.0810 C   0  0  0  0  0  0  0  0  0  0  0  0
   52.0260  155.9180   28.3340 C   0  0  0  0  0  0  0  0  0  0  0  0
   51.6770  157.1320   29.1010 C   0  0  0  0  0  0  0  0  0  0  0  0
   50.3600  157.1290   29.5470 O   0  0  0  0  0  0  0  0  0  0  0  0
   49.9030  158.2000   30.2730 C   0  0  0  0  0  0  0  0  0  0  0  0
   48.5800  158.1490   30.7130 C   0  0  0  0  0  0  0  0  0  0  0  0
   48.0510  159.2070   31.4550 C   0  0  0  0  0  0  0  0  0  0  0  0
   48.8450  160.3160   31.7580 C   0  0  0  0  0  0  0  0  0  0  0  0
   50.1660  160.3630   31.3180 C   0  0  0  0  0  0  0  0  0  0  0  0
   50.8870  161.4780   31.6490 O   0  0  0  0  0  0  0  0  0  0  0  0
   50.6940  159.3050   30.5750 C   0  0  0  0  0  0  0  0  0  0  0  0
   52.0760  159.3140   30.0940 C   0  0  0  0  0  0  0  0  0  0  0  0
   52.8360  160.2560   30.3130 O   0  0  0  0  0  0  0  0  0  0  0  0
   52.5420  158.1400   29.3220 C   0  0  0  0  0  0  0  0  0  0  0  0
   53.8450  158.1660   28.8600 O   0  0  0  0  0  0  0  0  0  0  0  0
   51.7680  154.6540   28.8730 C   0  0  0  0  0  0  0  0  0  0  0  0
   52.1120  153.4980   28.1710 C   0  0  0  0  0  0  0  0  0  0  0  0
   52.7300  153.5740   26.9090 C   0  0  0  0  0  0  0  0  0  0  0  0
   53.0840  152.3080   26.1670 C   0  0  0  0  0  0  0  0  0  0  0  0
   54.3880  151.9320   26.3130 F   0  0  0  0  0  0  0  0  0  0  0  0
   52.3630  151.2260   26.6010 F   0  0  0  0  0  0  0  0  0  0  0  0
   52.8420  152.3680   24.8260 F   0  0  0  0  0  0  0  0  0  0  0  0
   55.2598  157.1278   25.2913 H   0  0  0  0  0  0  0  0  0  0  0  0
   55.5055  156.2476   23.7448 H   0  0  0  0  0  0  0  0  0  0  0  0
   54.7117  157.8589   23.7448 H   0  0  0  0  0  0  0  0  0  0  0  0
   52.8346  156.8765   25.1023 H   0  0  0  0  0  0  0  0  0  0  0  0
   53.0125  156.1248   23.4741 H   0  0  0  0  0  0  0  0  0  0  0  0
   55.3168  154.3121   26.2022 H   0  0  0  0  0  0  0  0  0  0  0  0
   55.0719  153.4456   24.6479 H   0  0  0  0  0  0  0  0  0  0  0  0
   55.6812  155.1354   24.6479 H   0  0  0  0  0  0  0  0  0  0  0  0
   52.8767  156.9812   26.6528 H   0  0  0  0  0  0  0  0  0  0  0  0
   47.9542  157.2761   30.4756 H   0  0  0  0  0  0  0  0  0  0  0  0
   47.0077  159.1673   31.8014 H   0  0  0  0  0  0  0  0  0  0  0  0
   48.4283  161.1496   32.3423 H   0  0  0  0  0  0  0  0  0  0  0  0
   50.4610  162.2110   32.0470 H   0  0  0  0  0  0  0  0  0  0  0  0
   54.1290  158.8600   28.3000 H   0  0  0  0  0  0  0  0  0  0  0  0
   51.2893  154.5699   29.8598 H   0  0  0  0  0  0  0  0  0  0  0  0
   51.8969  152.5129   28.6106 H   0  0  0  0  0  0  0  0  0  0  0  0
  1  2  1  0
  2  3  1  0
  3  4  1  0
  3  5  1  0
  5  6  2  0
  6  7  1  0
  7  8  1  0
  8  9  1  0
  9 10  1  0
 10 11  2  0
 11 12  1  0
 12 13  2  0
 13 14  1  0
 14 15  1  0
 14 16  2  0
 16 17  1  0
 17 18  2  0
 17 19  1  0
 19 20  1  0
  7 21  2  0
 21 22  1  0
 22 23  2  0
 23 24  1  0
 24 25  1  0
 24 26  1  0
 24 27  1  0
 23  5  1  0
 19  8  2  0
 16 10  1  0
  1 28  1  0
  1 29  1  0
  1 30  1  0
  2 31  1  0
  2 32  1  0
  4 33  1  0
  4 34  1  0
  4 35  1  0
  6 36  1  0
 11 37  1  0
 12 38  1  0
 13 39  1  0
 15 40  1  0
 20 41  1  0
 21 42  1  0
 22 43  1  0
M  END
>  <meeko>  (1) 
{"is_sidechain": [false], "free_energy": -9.64, "intermolecular_energy": -12.458, "internal_energy": 0.652}

$$$$
cand_032_out
     RDKit          3D

 43 45  0  0  0  0  0  0  0  0999 V2000
   53.1210  161.9960   30.8500 C   0  0  0  0  0  0  0  0  0  0  0  0
   52.6290  160.5550   30.9010 C   0  0  0  0  0  0  0  0  0  0  0  0
   51.1590  160.5120   30.7850 N   0  0  0  0  0  0  0  0  0  0  0  0
   50.5740  161.5430   29.9170 C   0  0  0  0  0  0  0  0  0  0  0  0
   50.6760  159.2270   30.4450 C   0  0  0  0  0  0  0  0  0  0  0  0
   51.4580  158.3210   29.7000 C   0  0  0  0  0  0  0  0  0  0  0  0
   50.9900  157.0420   29.3630 C   0  0  0  0  0  0  0  0  0  0  0  0
   51.8040  156.1020   28.5660 C   0  0  0  0  0  0  0  0  0  0  0  0
   52.2880  156.6670   27.3910 O   0  0  0  0  0  0  0  0  0  0  0  0
   53.0600  155.9010   26.5550 C   0  0  0  0  0  0  0  0  0  0  0  0
   53.5370  156.5140   25.3960 C   0  0  0  0  0  0  0  0  0  0  0  0
   54.3260  155.7900   24.5000 C   0  0  0  0  0  0  0  0  0  0  0  0
   54.6400  154.4540   24.7630 C   0  0  0  0  0  0  0  0  0  0  0  0
   54.1630  153.8470   25.9220 C   0  0  0  0  0  0  0  0  0  0  0  0
   54.5070  152.5370   26.1180 O   0  0  0  0  0  0  0  0  0  0  0  0
   53.3730  154.5710   26.8180 C   0  0  0  0  0  0  0  0  0  0  0  0
   52.8520  153.9710   28.0460 C   0  0  0  0  0  0  0  0  0  0  0  0
   53.0780  152.8000   28.3460 O   0  0  0  0  0  0  0  0  0  0  0  0
   52.0310  154.8270   28.9330 C   0  0  0  0  0  0  0  0  0  0  0  0
   51.5320  154.2440   30.0840 O   0  0  0  0  0  0  0  0  0  0  0  0
   49.7010  156.6800   29.7670 C   0  0  0  0  0  0  0  0  0  0  0  0
   48.9110  157.5650   30.5020 C   0  0  0  0  0  0  0  0  0  0  0  0
   49.3860  158.8420   30.8500 C   0  0  0  0  0  0  0  0  0  0  0  0
   48.5140  159.7780   31.6530 C   0  0  0  0  0  0  0  0  0  0  0  0
   48.0610  160.8510   30.9420 F   0  0  0  0  0  0  0  0  0  0  0  0
   47.3780  159.1660   32.1160 F   0  0  0  0  0  0  0  0  0  0  0  0
   49.1190  160.2750   32.7690 F   0  0  0  0  0  0  0  0  0  0  0  0
   53.2506  162.3757   31.8742 H   0  0  0  0  0  0  0  0  0  0  0  0
   54.0838  162.0362   30.3195 H   0  0  0  0  0  0  0  0  0  0  0  0
   52.3838  162.6166   30.3195 H   0  0  0  0  0  0  0  0  0  0  0  0
   53.0754  159.9894   30.0698 H   0  0  0  0  0  0  0  0  0  0  0  0
   52.9255  160.1092   31.8619 H   0  0  0  0  0  0  0  0  0  0  0  0
   50.1256  162.3332   30.5371 H   0  0  0  0  0  0  0  0  0  0  0  0
   51.3603  161.9771   29.2820 H   0  0  0  0  0  0  0  0  0  0  0  0
   49.7980  161.0906   29.2820 H   0  0  0  0  0  0  0  0  0  0  0  0
   52.4634  158.6254   29.3737 H   0  0  0  0  0  0  0  0  0  0  0  0
   53.2919  157.5661   25.1884 H   0  0  0  0  0  0  0  0  0  0  0  0
   54.7012  156.2722   23.5853 H   0  0  0  0  0  0  0  0  0  0  0  0
   55.2617  153.8838   24.0571 H   0  0  0  0  0  0  0  0  0  0  0  0
   54.3890  151.9130   25.4300 H   0  0  0  0  0  0  0  0  0  0  0  0
   51.6640  153.3310   30.2420 H   0  0  0  0  0  0  0  0  0  0  0  0
   49.3059  155.6879   29.5028 H   0  0  0  0  0  0  0  0  0  0  0  0
   47.9015  157.2590   30.8138 H   0  0  0  0  0  0  0  0  0  0  0  0
  1  2  1  0
  2  3  1  0
  3  4  1  0
  3  5  1  0
  5  6  2  0
  6  7  1  0
  7  8  1  0
  8  9  1  0
  9 10  1  0
 10 11  2  0
 11 12  1  0
 12 13  2  0
 13 14  1  0
 14 15  1  0
 14 16  2  0
 16 17  1  0
 17 18  2  0
 17 19  1  0
 19 20  1  0
  7 21  2  0
 21 22  1  0
 22 23  2  0
 23 24  1  0
 24 25  1  0
 24 26  1  0
 24 27  1  0
 23  5  1  0
 19  8  2  0
 16 10  1  0
  1 28  1  0
  1 29  1  0
  1 30  1  0
  2 31  1  0
  2 32  1  0
  4 33  1  0
  4 34  1  0
  4 35  1  0
  6 36  1  0
 11 37  1  0
 12 38  1  0
 13 39  1  0
 15 40  1  0
 20 41  1  0
 21 42  1  0
 22 43  1  0
M  END
>  <meeko>  (2) 
{"is_sidechain": [false], "free_energy": -9.389, "intermolecular_energy": -11.658, "internal_energy": 0.177}

$$$$
cand_032_out
     RDKit          3D

 43 45  0  0  0  0  0  0  0  0999 V2000
   46.5020  160.0800   30.8780 C   0  0  0  0  0  0  0  0  0  0  0  0
   47.7120  159.2970   30.3870 C   0  0  0  0  0  0  0  0  0  0  0  0
   48.8030  159.3650   31.3790 N   0  0  0  0  0  0  0  0  0  0  0  0
   48.6300  158.4950   32.5500 C   0  0  0  0  0  0  0  0  0  0  0  0
   50.0800  159.1880   30.7980 C   0  0  0  0  0  0  0  0  0  0  0  0
   50.4040  158.0230   30.0740 C   0  0  0  0  0  0  0  0  0  0  0  0
   51.6660  157.8420   29.4890 C   0  0  0  0  0  0  0  0  0  0  0  0
   52.0100  156.6110   28.7470 C   0  0  0  0  0  0  0  0  0  0  0  0
   52.5360  156.8680   27.4860 O   0  0  0  0  0  0  0  0  0  0  0  0
   52.8970  155.8110   26.6890 C   0  0  0  0  0  0  0  0  0  0  0  0
   53.4340  156.1160   25.4390 C   0  0  0  0  0  0  0  0  0  0  0  0
   53.8200  155.0870   24.5770 C   0  0  0  0  0  0  0  0  0  0  0  0
   53.6700  153.7540   24.9660 C   0  0  0  0  0  0  0  0  0  0  0  0
   53.1350  153.4540   26.2160 C   0  0  0  0  0  0  0  0  0  0  0  0
   53.0150  152.1280   26.5340 O   0  0  0  0  0  0  0  0  0  0  0  0
   52.7480  154.4830   27.0780 C   0  0  0  0  0  0  0  0  0  0  0  0
   52.1810  154.2110   28.3990 C   0  0  0  0  0  0  0  0  0  0  0  0
   52.0120  153.0650   28.8120 O   0  0  0  0  0  0  0  0  0  0  0  0
   51.8110  155.3730   29.2390 C   0  0  0  0  0  0  0  0  0  0  0  0
   51.2630  155.1040   30.4800 O   0  0  0  0  0  0  0  0  0  0  0  0
   52.6250  158.8460   29.6560 C   0  0  0  0  0  0  0  0  0  0  0  0
   52.3240  160.0050   30.3730 C   0  0  0  0  0  0  0  0  0  0  0  0
   51.0540  160.1910   30.9490 C   0  0  0  0  0  0  0  0  0  0  0  0
   50.7510  161.4570   31.7120 C   0  0  0  0  0  0  0  0  0  0  0  0
   49.6140  162.0890   31.2970 F   0  0  0  0  0  0  0  0  0  0  0  0
   50.5500  161.2290   33.0480 F   0  0  0  0  0  0  0  0  0  0  0  0
   51.7510  162.3820   31.6660 F   0  0  0  0  0  0  0  0  0  0  0  0
   46.4914  160.0869   31.9779 H   0  0  0  0  0  0  0  0  0  0  0  0
   46.5582  161.1134   30.5054 H   0  0  0  0  0  0  0  0  0  0  0  0
   45.5823  159.6054   30.5054 H   0  0  0  0  0  0  0  0  0  0  0  0
   47.4262  158.2459   30.2334 H   0  0  0  0  0  0  0  0  0  0  0  0
   48.0614  159.7347   29.4402 H   0  0  0  0  0  0  0  0  0  0  0  0
   48.7480  159.0887   33.4685 H   0  0  0  0  0  0  0  0  0  0  0  0
   47.6253  158.0476   32.5292 H   0  0  0  0  0  0  0  0  0  0  0  0
   49.3871  157.6973   32.5292 H   0  0  0  0  0  0  0  0  0  0  0  0
   49.6459  157.2335   29.9646 H   0  0  0  0  0  0  0  0  0  0  0  0
   53.5535  157.1655   25.1321 H   0  0  0  0  0  0  0  0  0  0  0  0
   54.2428  155.3268   23.5902 H   0  0  0  0  0  0  0  0  0  0  0  0
   53.9736  152.9436   24.2869 H   0  0  0  0  0  0  0  0  0  0  0  0
   52.7040  151.5180   25.8940 H   0  0  0  0  0  0  0  0  0  0  0  0
   50.3650  154.8500   30.5500 H   0  0  0  0  0  0  0  0  0  0  0  0
   53.6263  158.7211   29.2180 H   0  0  0  0  0  0  0  0  0  0  0  0
   53.0912  160.7847   30.4895 H   0  0  0  0  0  0  0  0  0  0  0  0
  1  2  1  0
  2  3  1  0
  3  4  1  0
  3  5  1  0
  5  6  2  0
  6  7  1  0
  7  8  1  0
  8  9  1  0
  9 10  1  0
 10 11  2  0
 11 12  1  0
 12 13  2  0
 13 14  1  0
 14 15  1  0
 14 16  2  0
 16 17  1  0
 17 18  2  0
 17 19  1  0
 19 20  1  0
  7 21  2  0
 21 22  1  0
 22 23  2  0
 23 24  1  0
 24 25  1  0
 24 26  1  0
 24 27  1  0
 23  5  1  0
 19  8  2  0
 16 10  1  0
  1 28  1  0
  1 29  1  0
  1 30  1  0
  2 31  1  0
  2 32  1  0
  4 33  1  0
  4 34  1  0
  4 35  1  0
  6 36  1  0
 11 37  1  0
 12 38  1  0
 13 39  1  0
 15 40  1  0
 20 41  1  0
 21 42  1  0
 22 43  1  0
M  END
>  <meeko>  (3) 
{"is_sidechain": [false], "free_energy": -9.253, "intermolecular_energy": -10.817, "internal_energy": -0.489}

$$$$
cand_032_out
     RDKit          3D

 43 45  0  0  0  0  0  0  0  0999 V2000
   54.1970  154.0370   23.6290 C   0  0  0  0  0  0  0  0  0  0  0  0
   53.1110  154.6320   24.5140 C   0  0  0  0  0  0  0  0  0  0  0  0
   53.7050  155.2120   25.7340 N   0  0  0  0  0  0  0  0  0  0  0  0
   54.1560  156.6040   25.6030 C   0  0  0  0  0  0  0  0  0  0  0  0
   52.8820  155.0490   26.8730 C   0  0  0  0  0  0  0  0  0  0  0  0
   52.3410  156.1570   27.5540 C   0  0  0  0  0  0  0  0  0  0  0  0
   51.5190  156.0040   28.6810 C   0  0  0  0  0  0  0  0  0  0  0  0
   50.9690  157.1690   29.4050 C   0  0  0  0  0  0  0  0  0  0  0  0
   51.9210  158.1530   29.6470 O   0  0  0  0  0  0  0  0  0  0  0  0
   51.5440  159.2910   30.3150 C   0  0  0  0  0  0  0  0  0  0  0  0
   52.5270  160.2590   30.5230 C   0  0  0  0  0  0  0  0  0  0  0  0
   52.2100  161.4400   31.1980 C   0  0  0  0  0  0  0  0  0  0  0  0
   50.9110  161.6530   31.6640 C   0  0  0  0  0  0  0  0  0  0  0  0
   49.9320  160.6860   31.4530 C   0  0  0  0  0  0  0  0  0  0  0  0
   48.6810  160.9580   31.9360 O   0  0  0  0  0  0  0  0  0  0  0  0
   50.2490  159.5040   30.7790 C   0  0  0  0  0  0  0  0  0  0  0  0
   49.2500  158.4620   30.5370 C   0  0  0  0  0  0  0  0  0  0  0  0
   48.0870  158.5720   30.9210 O   0  0  0  0  0  0  0  0  0  0  0  0
   49.6870  157.2510   29.8050 C   0  0  0  0  0  0  0  0  0  0  0  0
   48.7380  156.2670   29.5950 O   0  0  0  0  0  0  0  0  0  0  0  0
   51.2560  154.7100   29.1400 C   0  0  0  0  0  0  0  0  0  0  0  0
   51.7860  153.6000   28.4790 C   0  0  0  0  0  0  0  0  0  0  0  0
   52.6010  153.7540   27.3430 C   0  0  0  0  0  0  0  0  0  0  0  0
   53.1550  152.5370   26.6420 C   0  0  0  0  0  0  0  0  0  0  0  0
   54.5180  152.4900   26.6190 F   0  0  0  0  0  0  0  0  0  0  0  0
   52.7790  151.3670   27.2490 F   0  0  0  0  0  0  0  0  0  0  0  0
   52.7370  152.4050   25.3510 F   0  0  0  0  0  0  0  0  0  0  0  0
   54.9875  153.6039   24.2596 H   0  0  0  0  0  0  0  0  0  0  0  0
   53.7626  153.2509   22.9939 H   0  0  0  0  0  0  0  0  0  0  0  0
   54.6257  154.8262   22.9939 H   0  0  0  0  0  0  0  0  0  0  0  0
   52.5814  155.4199   23.9584 H   0  0  0  0  0  0  0  0  0  0  0  0
   52.4081  153.8363   24.8018 H   0  0  0  0  0  0  0  0  0  0  0  0
   54.2971  157.0394   26.6033 H   0  0  0  0  0  0  0  0  0  0  0  0
   55.1087  156.6306   25.0538 H   0  0  0  0  0  0  0  0  0  0  0  0
   53.3999  157.1843   25.0538 H   0  0  0  0  0  0  0  0  0  0  0  0
   52.5692  157.1705   27.1923 H   0  0  0  0  0  0  0  0  0  0  0  0
   53.5504  160.0923   30.1558 H   0  0  0  0  0  0  0  0  0  0  0  0
   52.9847  162.2034   31.3627 H   0  0  0  0  0  0  0  0  0  0  0  0
   50.6619  162.5827   32.1966 H   0  0  0  0  0  0  0  0  0  0  0  0
   48.4470  161.8370   32.1640 H   0  0  0  0  0  0  0  0  0  0  0  0
   47.8800  156.3590   29.9570 H   0  0  0  0  0  0  0  0  0  0  0  0
   50.6259  154.5649   30.0299 H   0  0  0  0  0  0  0  0  0  0  0  0
   51.5627  152.5897   28.8524 H   0  0  0  0  0  0  0  0  0  0  0  0
  1  2  1  0
  2  3  1  0
  3  4  1  0
  3  5  1  0
  5  6  2  0
  6  7  1  0
  7  8  1  0
  8  9  1  0
  9 10  1  0
 10 11  2  0
 11 12  1  0
 12 13  2  0
 13 14  1  0
 14 15  1  0
 14 16  2  0
 16 17  1  0
 17 18  2  0
 17 19  1  0
 19 20  1  0
  7 21  2  0
 21 22  1  0
 22 23  2  0
 23 24  1  0
 24 25  1  0
 24 26  1  0
 24 27  1  0
 23  5  1  0
 19  8  2  0
 16 10  1  0
  1 28  1  0
  1 29  1  0
  1 30  1  0
  2 31  1  0
  2 32  1  0
  4 33  1  0
  4 34  1  0
  4 35  1  0
  6 36  1  0
 11 37  1  0
 12 38  1  0
 13 39  1  0
 15 40  1  0
 20 41  1  0
 21 42  1  0
 22 43  1  0
M  END
>  <meeko>  (4) 
{"is_sidechain": [false], "free_energy": -7.844, "intermolecular_energy": -10.774, "internal_energy": 1.289}

$$$$
cand_032_out
     RDKit          3D

 43 45  0  0  0  0  0  0  0  0999 V2000
   54.2930  150.8530   25.1440 C   0  0  0  0  0  0  0  0  0  0  0  0
   54.2910  152.1210   25.9880 C   0  0  0  0  0  0  0  0  0  0  0  0
   53.0150  152.8440   25.8210 N   0  0  0  0  0  0  0  0  0  0  0  0
   51.8810  152.2800   26.5640 C   0  0  0  0  0  0  0  0  0  0  0  0
   53.1400  154.2320   26.0610 C   0  0  0  0  0  0  0  0  0  0  0  0
   52.4060  154.8720   27.0800 C   0  0  0  0  0  0  0  0  0  0  0  0
   52.5290  156.2470   27.3290 C   0  0  0  0  0  0  0  0  0  0  0  0
   51.7430  156.9180   28.3850 C   0  0  0  0  0  0  0  0  0  0  0  0
   52.2930  158.1340   28.7770 O   0  0  0  0  0  0  0  0  0  0  0  0
   51.6620  158.8630   29.7540 C   0  0  0  0  0  0  0  0  0  0  0  0
   52.2400  160.0840   30.1050 C   0  0  0  0  0  0  0  0  0  0  0  0
   51.6500  160.8740   31.0930 C   0  0  0  0  0  0  0  0  0  0  0  0
   50.4830  160.4450   31.7300 C   0  0  0  0  0  0  0  0  0  0  0  0
   49.9090  159.2270   31.3760 C   0  0  0  0  0  0  0  0  0  0  0  0
   48.7670  158.8670   32.0390 O   0  0  0  0  0  0  0  0  0  0  0  0
   50.4990  158.4360   30.3870 C   0  0  0  0  0  0  0  0  0  0  0  0
   49.9290  157.1490   29.9860 C   0  0  0  0  0  0  0  0  0  0  0  0
   48.9080  156.7000   30.5030 O   0  0  0  0  0  0  0  0  0  0  0  0
   50.6270  156.3920   28.9220 C   0  0  0  0  0  0  0  0  0  0  0  0
   50.0860  155.1710   28.5610 O   0  0  0  0  0  0  0  0  0  0  0  0
   53.3920  156.9930   26.5200 C   0  0  0  0  0  0  0  0  0  0  0  0
   54.1240  156.3780   25.5040 C   0  0  0  0  0  0  0  0  0  0  0  0
   54.0100  154.9960   25.2630 C   0  0  0  0  0  0  0  0  0  0  0  0
   54.8200  154.3540   24.1630 C   0  0  0  0  0  0  0  0  0  0  0  0
   54.0950  153.5140   23.3680 F   0  0  0  0  0  0  0  0  0  0  0  0
   55.3520  155.2740   23.2980 F   0  0  0  0  0  0  0  0  0  0  0  0
   55.8910  153.6400   24.6110 F   0  0  0  0  0  0  0  0  0  0  0  0
   54.2944  149.9731   25.8042 H   0  0  0  0  0  0  0  0  0  0  0  0
   53.3949  150.8337   24.5092 H   0  0  0  0  0  0  0  0  0  0  0  0
   55.1912  150.8365   24.5092 H   0  0  0  0  0  0  0  0  0  0  0  0
   54.4204  151.8526   27.0469 H   0  0  0  0  0  0  0  0  0  0  0  0
   55.1164  152.7705   25.6610 H   0  0  0  0  0  0  0  0  0  0  0  0
   52.0677  152.3729   27.6441 H   0  0  0  0  0  0  0  0  0  0  0  0
   50.9629  152.8265   26.3023 H   0  0  0  0  0  0  0  0  0  0  0  0
   51.7629  151.2181   26.3023 H   0  0  0  0  0  0  0  0  0  0  0  0
   51.7173  154.2765   27.6974 H   0  0  0  0  0  0  0  0  0  0  0  0
   53.1587  160.4231   29.6040 H   0  0  0  0  0  0  0  0  0  0  0  0
   52.1049  161.8363   31.3706 H   0  0  0  0  0  0  0  0  0  0  0  0
   50.0190  161.0678   32.5090 H   0  0  0  0  0  0  0  0  0  0  0  0
   48.2080  158.2040   31.6830 H   0  0  0  0  0  0  0  0  0  0  0  0
   50.2610  154.8150   27.7130 H   0  0  0  0  0  0  0  0  0  0  0  0
   53.4947  158.0755   26.6864 H   0  0  0  0  0  0  0  0  0  0  0  0
   54.8005  156.9823   24.8818 H   0  0  0  0  0  0  0  0  0  0  0  0
  1  2  1  0
  2  3  1  0
  3  4  1  0
  3  5  1  0
  5  6  2  0
  6  7  1  0
  7  8  1  0
  8  9  1  0
  9 10  1  0
 10 11  2  0
 11 12  1  0
 12 13  2  0
 13 14  1  0
 14 15  1  0
 14 16  2  0
 16 17  1  0
 17 18  2  0
 17 19  1  0
 19 20  1  0
  7 21  2  0
 21 22  1  0
 22 23  2  0
 23 24  1  0
 24 25  1  0
 24 26  1  0
 24 27  1  0
 23  5  1  0
 19  8  2  0
 16 10  1  0
  1 28  1  0
  1 29  1  0
  1 30  1  0
  2 31  1  0
  2 32  1  0
  4 33  1  0
  4 34  1  0
  4 35  1  0
  6 36  1  0
 11 37  1  0
 12 38  1  0
 13 39  1  0
 15 40  1  0
 20 41  1  0
 21 42  1  0
 22 43  1  0
M  END
>  <meeko>  (5) 
{"is_sidechain": [false], "free_energy": -7.477, "intermolecular_energy": -10.236, "internal_energy": 1.225}

$$$$
cand_032_out
     RDKit          3D

 43 45  0  0  0  0  0  0  0  0999 V2000
   53.0080  161.8030   30.8870 C   0  0  0  0  0  0  0  0  0  0  0  0
   52.6160  160.3660   30.5730 C   0  0  0  0  0  0  0  0  0  0  0  0
   51.1470  160.2300   30.5460 N   0  0  0  0  0  0  0  0  0  0  0  0
   50.4490  161.2130   29.7080 C   0  0  0  0  0  0  0  0  0  0  0  0
   50.7260  158.9140   30.2440 C   0  0  0  0  0  0  0  0  0  0  0  0
   51.4550  158.0930   29.3600 C   0  0  0  0  0  0  0  0  0  0  0  0
   51.0480  156.7850   29.0600 C   0  0  0  0  0  0  0  0  0  0  0  0
   51.8040  155.9330   28.1170 C   0  0  0  0  0  0  0  0  0  0  0  0
   51.4470  154.5910   28.1960 O   0  0  0  0  0  0  0  0  0  0  0  0
   52.0740  153.6890   27.3740 C   0  0  0  0  0  0  0  0  0  0  0  0
   51.6750  152.3560   27.4760 C   0  0  0  0  0  0  0  0  0  0  0  0
   52.2750  151.3860   26.6710 C   0  0  0  0  0  0  0  0  0  0  0  0
   53.2720  151.7480   25.7620 C   0  0  0  0  0  0  0  0  0  0  0  0
   53.6670  153.0800   25.6620 C   0  0  0  0  0  0  0  0  0  0  0  0
   54.6490  153.3660   24.7530 O   0  0  0  0  0  0  0  0  0  0  0  0
   53.0680  154.0500   26.4690 C   0  0  0  0  0  0  0  0  0  0  0  0
   53.4530  155.4600   26.3960 C   0  0  0  0  0  0  0  0  0  0  0  0
   54.3270  155.8570   25.6270 O   0  0  0  0  0  0  0  0  0  0  0  0
   52.7510  156.4100   27.2880 C   0  0  0  0  0  0  0  0  0  0  0  0
   53.1340  157.7380   27.2200 O   0  0  0  0  0  0  0  0  0  0  0  0
   49.8730  156.3040   29.6450 C   0  0  0  0  0  0  0  0  0  0  0  0
   49.1360  157.1040   30.5210 C   0  0  0  0  0  0  0  0  0  0  0  0
   49.5520  158.4110   30.8310 C   0  0  0  0  0  0  0  0  0  0  0  0
   48.7410  159.2520   31.7870 C   0  0  0  0  0  0  0  0  0  0  0  0
   48.0300  160.2450   31.1770 F   0  0  0  0  0  0  0  0  0  0  0  0
   47.8010  158.5190   32.4620 F   0  0  0  0  0  0  0  0  0  0  0  0
   49.4830  159.8470   32.7640 F   0  0  0  0  0  0  0  0  0  0  0  0
   53.0461  161.9427   31.9774 H   0  0  0  0  0  0  0  0  0  0  0  0
   53.9971  162.0160   30.4552 H   0  0  0  0  0  0  0  0  0  0  0  0
   52.2641  162.4887   30.4552 H   0  0  0  0  0  0  0  0  0  0  0  0
   53.0245  160.0847   29.5912 H   0  0  0  0  0  0  0  0  0  0  0  0
   53.0221  159.7057   31.3534 H   0  0  0  0  0  0  0  0  0  0  0  0
   49.9320  161.9411   30.3503 H   0  0  0  0  0  0  0  0  0  0  0  0
   51.1783  161.7372   29.0729 H   0  0  0  0  0  0  0  0  0  0  0  0
   49.7137  160.6972   29.0729 H   0  0  0  0  0  0  0  0  0  0  0  0
   52.3685  158.4893   28.8925 H   0  0  0  0  0  0  0  0  0  0  0  0
   50.8886  152.0697   28.1899 H   0  0  0  0  0  0  0  0  0  0  0  0
   51.9621  150.3346   26.7527 H   0  0  0  0  0  0  0  0  0  0  0  0
   53.7437  150.9835   25.1271 H   0  0  0  0  0  0  0  0  0  0  0  0
   54.9460  154.2480   24.6460 H   0  0  0  0  0  0  0  0  0  0  0  0
   54.0390  157.9600   27.1300 H   0  0  0  0  0  0  0  0  0  0  0  0
   49.5258  155.2863   29.4133 H   0  0  0  0  0  0  0  0  0  0  0  0
   48.2166  156.7059   30.9751 H   0  0  0  0  0  0  0  0  0  0  0  0
  1  2  1  0
  2  3  1  0
  3  4  1  0
  3  5  1  0
  5  6  2  0
  6  7  1  0
  7  8  1  0
  8  9  1  0
  9 10  1  0
 10 11  2  0
 11 12  1  0
 12 13  2  0
 13 14  1  0
 14 15  1  0
 14 16  2  0
 16 17  1  0
 17 18  2  0
 17 19  1  0
 19 20  1  0
  7 21  2  0
 21 22  1  0
 22 23  2  0
 23 24  1  0
 24 25  1  0
 24 26  1  0
 24 27  1  0
 23  5  1  0
 19  8  2  0
 16 10  1  0
  1 28  1  0
  1 29  1  0
  1 30  1  0
  2 31  1  0
  2 32  1  0
  4 33  1  0
  4 34  1  0
  4 35  1  0
  6 36  1  0
 11 37  1  0
 12 38  1  0
 13 39  1  0
 15 40  1  0
 20 41  1  0
 21 42  1  0
 22 43  1  0
M  END
>  <meeko>  (6) 
{"is_sidechain": [false], "free_energy": -7.365, "intermolecular_energy": -9.151, "internal_energy": 0.286}

$$$$
