cand_003_out
     RDKit          3D

 35 37  0  0  0  0  0  0  0  0999 V2000
   52.0530  161.0280   30.6950 C   0  0  0  0  0  0  0  0  0  0  0  0
   51.2500  159.7700   30.4950 C   0  0  0  0  0  0  0  0  0  0  0  0
   51.8230  158.6980   29.7850 C   0  0  0  0  0  0  0  0  0  0  0  0
   51.1270  157.4980   29.5780 C   0  0  0  0  0  0  0  0  0  0  0  0
   51.7550  156.4060   28.8040 C   0  0  0  0  0  0  0  0  0  0  0  0
   52.3080  156.8420   27.6050 O   0  0  0  0  0  0  0  0  0  0  0  0
   52.9240  155.9280   26.7890 C   0  0  0  0  0  0  0  0  0  0  0  0
   53.4520  156.4050   25.5880 C   0  0  0  0  0  0  0  0  0  0  0  0
   54.0950  155.5280   24.7120 C   0  0  0  0  0  0  0  0  0  0  0  0
   54.2110  154.1750   25.0360 C   0  0  0  0  0  0  0  0  0  0  0  0
   53.6840  153.7010   26.2360 C   0  0  0  0  0  0  0  0  0  0  0  0
   53.8340  152.3660   26.4910 O   0  0  0  0  0  0  0  0  0  0  0  0
   53.0400  154.5790   27.1110 C   0  0  0  0  0  0  0  0  0  0  0  0
   52.4730  154.1230   28.3800 C   0  0  0  0  0  0  0  0  0  0  0  0
   52.5410  152.9490   28.7400 O   0  0  0  0  0  0  0  0  0  0  0  0
   51.8030  155.1320   29.2340 C   0  0  0  0  0  0  0  0  0  0  0  0
   51.2830  154.6930   30.4380 O   0  0  0  0  0  0  0  0  0  0  0  0
   49.8260  157.3870   30.0820 C   0  0  0  0  0  0  0  0  0  0  0  0
   49.2450  158.4410   30.7910 C   0  0  0  0  0  0  0  0  0  0  0  0
   49.9430  159.6410   31.0110 C   0  0  0  0  0  0  0  0  0  0  0  0
   49.2790  160.7600   31.7840 C   0  0  0  0  0  0  0  0  0  0  0  0
   48.9720  161.8340   31.0040 F   0  0  0  0  0  0  0  0  0  0  0  0
   50.0480  161.2520   32.7980 F   0  0  0  0  0  0  0  0  0  0  0  0
   48.1100  160.3740   32.3690 F   0  0  0  0  0  0  0  0  0  0  0  0
   52.1744  161.2182   31.7716 H   0  0  0  0  0  0  0  0  0  0  0  0
   53.0427  160.9091   30.2297 H   0  0  0  0  0  0  0  0  0  0  0  0
   51.5285  161.8756   30.2297 H   0  0  0  0  0  0  0  0  0  0  0  0
   52.8413  158.8040   29.3828 H   0  0  0  0  0  0  0  0  0  0  0  0
   53.3616  157.4709   25.3319 H   0  0  0  0  0  0  0  0  0  0  0  0
   54.5107  155.9037   23.7654 H   0  0  0  0  0  0  0  0  0  0  0  0
   54.7173  153.4844   24.3455 H   0  0  0  0  0  0  0  0  0  0  0  0
   53.4830  151.7330   25.8960 H   0  0  0  0  0  0  0  0  0  0  0  0
   51.7740  154.8030   31.2280 H   0  0  0  0  0  0  0  0  0  0  0  0
   49.2556  156.4608   29.9182 H   0  0  0  0  0  0  0  0  0  0  0  0
   48.2236  158.3300   31.1839 H   0  0  0  0  0  0  0  0  0  0  0  0
  1  2  1  0
  2  3  2  0
  3  4  1  0
  4  5  1  0
  5  6  1  0
  6  7  1  0
  7  8  2  0
  8  9  1  0
  9 10  2  0
 10 11  1  0
 11 12  1  0
 11 13  2  0
 13 14  1  0
 14 15  2  0
 14 16  1  0
 16 17  1  0
  4 18  2  0
 18 19  1  0
 19 20  2  0
 20 21  1  0
 21 22  1  0
 21 23  1  0
 21 24  1  0
 20  2  1  0
 16  5  2  0
 13  7  1  0
  1 25  1  0
  1 26  1  0
  1 27  1  0
  3 28  1  0
  8 29  1  0
  9 30  1  0
 10 31  1  0
 12 32  1  0
 17 33  1  0
 18 34  1  0
 19 35  1  0
M  END
>  <meeko>  (1) 
{"is_sidechain": [false], "free_energy": -11.426, "intermolecular_energy": -13.43, "internal_energy": -0.153}

$$$$
cand_003_out
     RDKit          3D

 35 37  0  0  0  0  0  0  0  0999 V2000
   48.1900  158.8110   31.3250 C   0  0  0  0  0  0  0  0  0  0  0  0
   49.6000  158.8580   30.7970 C   0  0  0  0  0  0  0  0  0  0  0  0
   50.0910  157.7640   30.0600 C   0  0  0  0  0  0  0  0  0  0  0  0
   51.3920  157.7580   29.5330 C   0  0  0  0  0  0  0  0  0  0  0  0
   51.8770  156.5780   28.7870 C   0  0  0  0  0  0  0  0  0  0  0  0
   52.4780  156.9120   27.5790 O   0  0  0  0  0  0  0  0  0  0  0  0
   52.9740  155.9090   26.7860 C   0  0  0  0  0  0  0  0  0  0  0  0
   53.5560  156.2860   25.5750 C   0  0  0  0  0  0  0  0  0  0  0  0
   54.0820  155.3150   24.7210 C   0  0  0  0  0  0  0  0  0  0  0  0
   54.0280  153.9660   25.0780 C   0  0  0  0  0  0  0  0  0  0  0  0
   53.4470  153.5910   26.2870 C   0  0  0  0  0  0  0  0  0  0  0  0
   53.4280  152.2540   26.5750 O   0  0  0  0  0  0  0  0  0  0  0  0
   52.9190  154.5640   27.1400 C   0  0  0  0  0  0  0  0  0  0  0  0
   52.3010  154.2130   28.4190 C   0  0  0  0  0  0  0  0  0  0  0  0
   52.2220  153.0490   28.8070 O   0  0  0  0  0  0  0  0  0  0  0  0
   51.7650  155.3180   29.2480 C   0  0  0  0  0  0  0  0  0  0  0  0
   51.1950  154.9770   30.4610 O   0  0  0  0  0  0  0  0  0  0  0  0
   52.2120  158.8660   29.7700 C   0  0  0  0  0  0  0  0  0  0  0  0
   51.7370  159.9610   30.4990 C   0  0  0  0  0  0  0  0  0  0  0  0
   50.4320  159.9770   31.0170 C   0  0  0  0  0  0  0  0  0  0  0  0
   49.9540  161.1810   31.8000 C   0  0  0  0  0  0  0  0  0  0  0  0
   50.9350  162.1050   32.0000 F   0  0  0  0  0  0  0  0  0  0  0  0
   49.4830  160.8720   33.0420 F   0  0  0  0  0  0  0  0  0  0  0  0
   48.9360  161.8420   31.1780 F   0  0  0  0  0  0  0  0  0  0  0  0
   48.2101  158.8117   32.4248 H   0  0  0  0  0  0  0  0  0  0  0  0
   47.6352  159.6912   30.9679 H   0  0  0  0  0  0  0  0  0  0  0  0
   47.6950  157.8959   30.9679 H   0  0  0  0  0  0  0  0  0  0  0  0
   49.4399  156.8933   29.8931 H   0  0  0  0  0  0  0  0  0  0  0  0
   53.6003  157.3484   25.2933 H   0  0  0  0  0  0  0  0  0  0  0  0
   54.5394  155.6128   23.7660 H   0  0  0  0  0  0  0  0  0  0  0  0
   54.4435  153.2010   24.4056 H   0  0  0  0  0  0  0  0  0  0  0  0
   53.4840  151.9650   27.4640 H   0  0  0  0  0  0  0  0  0  0  0  0
   51.6940  154.5020   31.0950 H   0  0  0  0  0  0  0  0  0  0  0  0
   53.2402  158.8763   29.3793 H   0  0  0  0  0  0  0  0  0  0  0  0
   52.3970  160.8244   30.6695 H   0  0  0  0  0  0  0  0  0  0  0  0
  1  2  1  0
  2  3  2  0
  3  4  1  0
  4  5  1  0
  5  6  1  0
  6  7  1  0
  7  8  2  0
  8  9  1  0
  9 10  2  0
 10 11  1  0
 11 12  1  0
 11 13  2  0
 13 14  1  0
 14 15  2  0
 14 16  1  0
 16 17  1  0
  4 18  2  0
 18 19  1  0
 19 20  2  0
 20 21  1  0
 21 22  1  0
 21 23  1  0
 21 24  1  0
 20  2  1  0
 16  5  2  0
 13  7  1  0
  1 25  1  0
  1 26  1  0
  1 27  1  0
  3 28  1  0
  8 29  1  0
  9 30  1  0
 10 31  1  0
 12 32  1  0
 17 33  1  0
 18 34  1  0
 19 35  1  0
M  END
>  <meeko>  (2) 
{"is_sidechain": [false], "free_energy": -11.266, "intermolecular_energy": -13.286, "internal_energy": -0.109}

$$$$
cand_003_out
     RDKit          3D

 35 37  0  0  0  0  0  0  0  0999 V2000
   53.7770  155.5490   25.3460 C   0  0  0  0  0  0  0  0  0  0  0  0
   53.0140  155.3360   26.6260 C   0  0  0  0  0  0  0  0  0  0  0  0
   52.6020  156.4570   27.3720 C   0  0  0  0  0  0  0  0  0  0  0  0
   51.8780  156.3200   28.5660 C   0  0  0  0  0  0  0  0  0  0  0  0
   51.4880  157.5220   29.3320 C   0  0  0  0  0  0  0  0  0  0  0  0
   50.1560  157.5030   29.7300 O   0  0  0  0  0  0  0  0  0  0  0  0
   49.6630  158.5600   30.4500 C   0  0  0  0  0  0  0  0  0  0  0  0
   48.3180  158.5060   30.8160 C   0  0  0  0  0  0  0  0  0  0  0  0
   47.7530  159.5500   31.5530 C   0  0  0  0  0  0  0  0  0  0  0  0
   48.5330  160.6470   31.9230 C   0  0  0  0  0  0  0  0  0  0  0  0
   49.8760  160.6980   31.5580 C   0  0  0  0  0  0  0  0  0  0  0  0
   50.5830  161.8010   31.9540 O   0  0  0  0  0  0  0  0  0  0  0  0
   50.4400  159.6540   30.8190 C   0  0  0  0  0  0  0  0  0  0  0  0
   51.8460  159.6690   30.4150 C   0  0  0  0  0  0  0  0  0  0  0  0
   52.6000  160.5950   30.7090 O   0  0  0  0  0  0  0  0  0  0  0  0
   52.3450  158.5170   29.6280 C   0  0  0  0  0  0  0  0  0  0  0  0
   53.6790  158.5340   29.2630 O   0  0  0  0  0  0  0  0  0  0  0  0
   51.5800  155.0310   29.0190 C   0  0  0  0  0  0  0  0  0  0  0  0
   51.9790  153.9080   28.2890 C   0  0  0  0  0  0  0  0  0  0  0  0
   52.6940  154.0410   27.0870 C   0  0  0  0  0  0  0  0  0  0  0  0
   53.1080  152.8010   26.3240 C   0  0  0  0  0  0  0  0  0  0  0  0
   54.4150  152.4700   26.5200 F   0  0  0  0  0  0  0  0  0  0  0  0
   52.9600  152.9180   24.9730 F   0  0  0  0  0  0  0  0  0  0  0  0
   52.3850  151.7010   26.6760 F   0  0  0  0  0  0  0  0  0  0  0  0
   54.8122  155.8380   25.5800 H   0  0  0  0  0  0  0  0  0  0  0  0
   53.7797  154.6173   24.7613 H   0  0  0  0  0  0  0  0  0  0  0  0
   53.2967  156.3474   24.7613 H   0  0  0  0  0  0  0  0  0  0  0  0
   52.8539  157.4647   27.0098 H   0  0  0  0  0  0  0  0  0  0  0  0
   47.7026  157.6421   30.5246 H   0  0  0  0  0  0  0  0  0  0  0  0
   46.6925  159.5074   31.8419 H   0  0  0  0  0  0  0  0  0  0  0  0
   48.0877  161.4696   32.5018 H   0  0  0  0  0  0  0  0  0  0  0  0
   50.1310  162.5540   32.2800 H   0  0  0  0  0  0  0  0  0  0  0  0
   54.2280  159.2440   29.5300 H   0  0  0  0  0  0  0  0  0  0  0  0
   51.0256  154.8995   29.9600 H   0  0  0  0  0  0  0  0  0  0  0  0
   51.7291  152.9037   28.6616 H   0  0  0  0  0  0  0  0  0  0  0  0
  1  2  1  0
  2  3  2  0
  3  4  1  0
  4  5  1  0
  5  6  1  0
  6  7  1  0
  7  8  2  0
  8  9  1  0
  9 10  2  0
 10 11  1  0
 11 12  1  0
 11 13  2  0
 13 14  1  0
 14 15  2  0
 14 16  1  0
 16 17  1  0
  4 18  2  0
 18 19  1  0
 19 20  2  0
 20 21  1  0
 21 22  1  0
 21 23  1  0
 21 24  1  0
 20  2  1  0
 16  5  2  0
 13  7  1  0
  1 25  1  0
  1 26  1  0
  1 27  1  0
  3 28  1  0
  8 29  1  0
  9 30  1  0
 10 31  1  0
 12 32  1  0
 17 33  1  0
 18 34  1  0
 19 35  1  0
M  END
>  <meeko>  (3) 
{"is_sidechain": [false], "free_energy": -10.592, "intermolecular_energy": -12.617, "internal_energy": 0.014}

$$$$
cand_003_out
     RDKit          3D

 35 37  0  0  0  0  0  0  0  0999 V2000
   53.7580  155.8080   25.4950 C   0  0  0  0  0  0  0  0  0  0  0  0
   52.9460  155.4440   26.7100 C   0  0  0  0  0  0  0  0  0  0  0  0
   52.3740  156.4720   27.4830 C   0  0  0  0  0  0  0  0  0  0  0  0
   51.5970  156.1920   28.6180 C   0  0  0  0  0  0  0  0  0  0  0  0
   51.0360  157.3010   29.4180 C   0  0  0  0  0  0  0  0  0  0  0  0
   51.9450  158.3320   29.6250 O   0  0  0  0  0  0  0  0  0  0  0  0
   51.5520  159.4260   30.3530 C   0  0  0  0  0  0  0  0  0  0  0  0
   52.5000  160.4310   30.5490 C   0  0  0  0  0  0  0  0  0  0  0  0
   52.1640  161.5740   31.2790 C   0  0  0  0  0  0  0  0  0  0  0  0
   50.8810  161.7110   31.8120 C   0  0  0  0  0  0  0  0  0  0  0  0
   49.9360  160.7080   31.6140 C   0  0  0  0  0  0  0  0  0  0  0  0
   48.6990  160.9070   32.1620 O   0  0  0  0  0  0  0  0  0  0  0  0
   50.2730  159.5640   30.8840 C   0  0  0  0  0  0  0  0  0  0  0  0
   49.3110  158.4870   30.6540 C   0  0  0  0  0  0  0  0  0  0  0  0
   48.1600  158.5370   31.0830 O   0  0  0  0  0  0  0  0  0  0  0  0
   49.7690  157.3130   29.8730 C   0  0  0  0  0  0  0  0  0  0  0  0
   48.8490  156.3070   29.6490 O   0  0  0  0  0  0  0  0  0  0  0  0
   51.4120  154.8550   28.9850 C   0  0  0  0  0  0  0  0  0  0  0  0
   51.9710  153.8230   28.2260 C   0  0  0  0  0  0  0  0  0  0  0  0
   52.7390  154.0990   27.0820 C   0  0  0  0  0  0  0  0  0  0  0  0
   53.3280  152.9540   26.2850 C   0  0  0  0  0  0  0  0  0  0  0  0
   54.6680  152.8070   26.4810 F   0  0  0  0  0  0  0  0  0  0  0  0
   53.1690  153.0900   24.9370 F   0  0  0  0  0  0  0  0  0  0  0  0
   52.7680  151.7520   26.5990 F   0  0  0  0  0  0  0  0  0  0  0  0
   54.7192  156.2389   25.8120 H   0  0  0  0  0  0  0  0  0  0  0  0
   53.9413  154.9059   24.8928 H   0  0  0  0  0  0  0  0  0  0  0  0
   53.2066  156.5451   24.8928 H   0  0  0  0  0  0  0  0  0  0  0  0
   52.5398  157.5194   27.1907 H   0  0  0  0  0  0  0  0  0  0  0  0
   53.5110  160.3235   30.1291 H   0  0  0  0  0  0  0  0  0  0  0  0
   52.9110  162.3665   31.4339 H   0  0  0  0  0  0  0  0  0  0  0  0
   50.6170  162.6104   32.3877 H   0  0  0  0  0  0  0  0  0  0  0  0
   48.6090  161.4150   32.9440 H   0  0  0  0  0  0  0  0  0  0  0  0
   48.8110  155.8840   28.8140 H   0  0  0  0  0  0  0  0  0  0  0  0
   50.8204  154.6132   29.8803 H   0  0  0  0  0  0  0  0  0  0  0  0
   51.8072  152.7783   28.5289 H   0  0  0  0  0  0  0  0  0  0  0  0
  1  2  1  0
  2  3  2  0
  3  4  1  0
  4  5  1  0
  5  6  1  0
  6  7  1  0
  7  8  2  0
  8  9  1  0
  9 10  2  0
 10 11  1  0
 11 12  1  0
 11 13  2  0
 13 14  1  0
 14 15  2  0
 14 16  1  0
 16 17  1  0
  4 18  2  0
 18 19  1  0
 19 20  2  0
 20 21  1  0
 21 22  1  0
 21 23  1  0
 21 24  1  0
 20  2  1  0
 16  5  2  0
 13  7  1  0
  1 25  1  0
  1 26  1  0
  1 27  1  0
  3 28  1  0
  8 29  1  0
  9 30  1  0
 10 31  1  0
 12 32  1  0
 17 33  1  0
 18 34  1  0
 19 35  1  0
M  END
>  <meeko>  (4) 
{"is_sidechain": [false], "free_energy": -9.383, "intermolecular_energy": -11.133, "internal_energy": -0.049}

$$$$
cand_003_out
     RDKit          3D

 35 37  0  0  0  0  0  0  0  0999 V2000
   51.9550  159.8440   30.1670 C   0  0  0  0  0  0  0  0  0  0  0  0
   51.2940  158.5270   29.8590 C   0  0  0  0  0  0  0  0  0  0  0  0
   51.9470  157.6170   29.0050 C   0  0  0  0  0  0  0  0  0  0  0  0
   51.3850  156.3700   28.6930 C   0  0  0  0  0  0  0  0  0  0  0  0
   52.0910  155.4550   27.7710 C   0  0  0  0  0  0  0  0  0  0  0  0
   51.6820  154.1330   27.9020 O   0  0  0  0  0  0  0  0  0  0  0  0
   52.2590  153.1790   27.1040 C   0  0  0  0  0  0  0  0  0  0  0  0
   51.8290  151.8620   27.2780 C   0  0  0  0  0  0  0  0  0  0  0  0
   52.3740  150.8420   26.4960 C   0  0  0  0  0  0  0  0  0  0  0  0
   53.3480  151.1370   25.5390 C   0  0  0  0  0  0  0  0  0  0  0  0
   53.7740  152.4520   25.3660 C   0  0  0  0  0  0  0  0  0  0  0  0
   54.7290  152.6710   24.4120 O   0  0  0  0  0  0  0  0  0  0  0  0
   53.2290  153.4720   26.1510 C   0  0  0  0  0  0  0  0  0  0  0  0
   53.6490  154.8660   26.0010 C   0  0  0  0  0  0  0  0  0  0  0  0
   54.4950  155.2070   25.1760 O   0  0  0  0  0  0  0  0  0  0  0  0
   53.0160  155.8720   26.8860 C   0  0  0  0  0  0  0  0  0  0  0  0
   53.4090  157.1880   26.7270 O   0  0  0  0  0  0  0  0  0  0  0  0
   50.1380  156.0460   29.2390 C   0  0  0  0  0  0  0  0  0  0  0  0
   49.4790  156.9370   30.0900 C   0  0  0  0  0  0  0  0  0  0  0  0
   50.0440  158.1820   30.4150 C   0  0  0  0  0  0  0  0  0  0  0  0
   49.3000  159.1200   31.3410 C   0  0  0  0  0  0  0  0  0  0  0  0
   48.7910  160.2070   30.6970 F   0  0  0  0  0  0  0  0  0  0  0  0
   50.0740  159.6200   32.3470 F   0  0  0  0  0  0  0  0  0  0  0  0
   48.2430  158.5200   31.9590 F   0  0  0  0  0  0  0  0  0  0  0  0
   52.0208  159.9751   31.2572 H   0  0  0  0  0  0  0  0  0  0  0  0
   52.9663  159.8567   29.7344 H   0  0  0  0  0  0  0  0  0  0  0  0
   51.3609  160.6625   29.7344 H   0  0  0  0  0  0  0  0  0  0  0  0
   52.9207  157.8905   28.5724 H   0  0  0  0  0  0  0  0  0  0  0  0
   51.0615  151.6284   28.0306 H   0  0  0  0  0  0  0  0  0  0  0  0
   52.0359  149.8043   26.6336 H   0  0  0  0  0  0  0  0  0  0  0  0
   53.7775  150.3328   24.9235 H   0  0  0  0  0  0  0  0  0  0  0  0
   55.6130  152.8530   24.6660 H   0  0  0  0  0  0  0  0  0  0  0  0
   54.3140  157.4170   26.8000 H   0  0  0  0  0  0  0  0  0  0  0  0
   49.6717  155.0799   28.9957 H   0  0  0  0  0  0  0  0  0  0  0  0
   48.5020  156.6594   30.5124 H   0  0  0  0  0  0  0  0  0  0  0  0
  1  2  1  0
  2  3  2  0
  3  4  1  0
  4  5  1  0
  5  6  1  0
  6  7  1  0
  7  8  2  0
  8  9  1  0
  9 10  2  0
 10 11  1  0
 11 12  1  0
 11 13  2  0
 13 14  1  0
 14 15  2  0
 14 16  1  0
 16 17  1  0
  4 18  2  0
 18 19  1  0
 19 20  2  0
 20 21  1  0
 21 22  1  0
 21 23  1  0
 21 24  1  0
 20  2  1  0
 16  5  2  0
 13  7  1  0
  1 25  1  0
  1 26  1  0
  1 27  1  0
  3 28  1  0
  8 29  1  0
  9 30  1  0
 10 31  1  0
 12 32  1  0
 17 33  1  0
 18 34  1  0
 19 35  1  0
M  END
>  <meeko>  (5) 
{"is_sidechain": [false], "free_energy": -8.844, "intermolecular_energy": -10.795, "internal_energy": 0.246}

$$$$
cand_003_out
     RDKit          3D

 35 37  0  0  0  0  0  0  0  0999 V2000
   54.3470  155.7670   25.2800 C   0  0  0  0  0  0  0  0  0  0  0  0
   53.3320  155.5100   26.3620 C   0  0  0  0  0  0  0  0  0  0  0  0
   52.9010  156.5840   27.1640 C   0  0  0  0  0  0  0  0  0  0  0  0
   51.9490  156.4070   28.1790 C   0  0  0  0  0  0  0  0  0  0  0  0
   51.5430  157.5560   29.0160 C   0  0  0  0  0  0  0  0  0  0  0  0
   50.1680  157.6280   29.2070 O   0  0  0  0  0  0  0  0  0  0  0  0
   49.6570  158.6490   29.9670 C   0  0  0  0  0  0  0  0  0  0  0  0
   48.2710  158.6910   30.1210 C   0  0  0  0  0  0  0  0  0  0  0  0
   47.6850  159.7040   30.8840 C   0  0  0  0  0  0  0  0  0  0  0  0
   48.4850  160.6730   31.4930 C   0  0  0  0  0  0  0  0  0  0  0  0
   49.8680  160.6280   31.3380 C   0  0  0  0  0  0  0  0  0  0  0  0
   50.5910  161.6070   31.9620 O   0  0  0  0  0  0  0  0  0  0  0  0
   50.4530  159.6150   30.5730 C   0  0  0  0  0  0  0  0  0  0  0  0
   51.9020  159.5320   30.3850 C   0  0  0  0  0  0  0  0  0  0  0  0
   52.6730  160.3430   30.8950 O   0  0  0  0  0  0  0  0  0  0  0  0
   52.4220  158.4240   29.5510 C   0  0  0  0  0  0  0  0  0  0  0  0
   53.7930  158.3460   29.3900 O   0  0  0  0  0  0  0  0  0  0  0  0
   51.4370  155.1230   28.3960 C   0  0  0  0  0  0  0  0  0  0  0  0
   51.8530  154.0480   27.6060 C   0  0  0  0  0  0  0  0  0  0  0  0
   52.7980  154.2220   26.5810 C   0  0  0  0  0  0  0  0  0  0  0  0
   53.2230  153.0330   25.7460 C   0  0  0  0  0  0  0  0  0  0  0  0
   53.1670  153.2790   24.4080 F   0  0  0  0  0  0  0  0  0  0  0  0
   52.4540  151.9240   25.9470 F   0  0  0  0  0  0  0  0  0  0  0  0
   54.5030  152.6410   26.0040 F   0  0  0  0  0  0  0  0  0  0  0  0
   55.3167  156.0125   25.7377 H   0  0  0  0  0  0  0  0  0  0  0  0
   54.4534  154.8675   24.6559 H   0  0  0  0  0  0  0  0  0  0  0  0
   54.0125  156.6088   24.6559 H   0  0  0  0  0  0  0  0  0  0  0  0
   53.3208  157.5858   26.9905 H   0  0  0  0  0  0  0  0  0  0  0  0
   47.6404  157.9274   29.6422 H   0  0  0  0  0  0  0  0  0  0  0  0
   46.5922  159.7383   31.0052 H   0  0  0  0  0  0  0  0  0  0  0  0
   48.0235  161.4704   32.0940 H   0  0  0  0  0  0  0  0  0  0  0  0
   51.4810  161.4470   32.2100 H   0  0  0  0  0  0  0  0  0  0  0  0
   54.1560  157.7910   28.7290 H   0  0  0  0  0  0  0  0  0  0  0  0
   50.7001  154.9583   29.1959 H   0  0  0  0  0  0  0  0  0  0  0  0
   51.4332  153.0480   27.7899 H   0  0  0  0  0  0  0  0  0  0  0  0
  1  2  1  0
  2  3  2  0
  3  4  1  0
  4  5  1  0
  5  6  1  0
  6  7  1  0
  7  8  2  0
  8  9  1  0
  9 10  2  0
 10 11  1  0
 11 12  1  0
 11 13  2  0
 13 14  1  0
 14 15  2  0
 14 16  1  0
 16 17  1  0
  4 18  2  0
 18 19  1  0
 19 20  2  0
 20 21  1  0
 21 22  1  0
 21 23  1  0
 21 24  1  0
 20  2  1  0
 16  5  2  0
 13  7  1  0
  1 25  1  0
  1 26  1  0
  1 27  1  0
  3 28  1  0
  8 29  1  0
  9 30  1  0
 10 31  1  0
 12 32  1  0
 17 33  1  0
 18 34  1  0
 19 35  1  0
M  END
>  <meeko>  (6) 
{"is_sidechain": [false], "free_energy": -8.77, "intermolecular_energy": -10.436, "internal_energy": -0.025}

$$$$
