cand_038_out
     RDKit          3D

 47 49  0  0  0  0  0  0  0  0999 V2000
   52.3910  161.0550   31.6740 C   0  0  0  0  0  0  0  0  0  0  0  0
   51.6140  160.8890   30.3720 C   0  0  0  0  0  0  0  0  0  0  0  0
   50.9100  159.5510   30.2870 C   0  0  0  0  0  0  0  0  0  0  0  0
   51.6230  158.5640   29.5530 C   0  0  0  0  0  0  0  0  0  0  0  0
   51.1500  157.2620   29.3740 C   0  0  0  0  0  0  0  0  0  0  0  0
   51.8940  156.2530   28.5900 C   0  0  0  0  0  0  0  0  0  0  0  0
   52.3850  156.7570   27.3900 O   0  0  0  0  0  0  0  0  0  0  0  0
   53.0970  155.9260   26.5650 C   0  0  0  0  0  0  0  0  0  0  0  0
   53.5830  156.4760   25.3780 C   0  0  0  0  0  0  0  0  0  0  0  0
   54.3140  155.6830   24.4900 C   0  0  0  0  0  0  0  0  0  0  0  0
   54.5590  154.3410   24.7890 C   0  0  0  0  0  0  0  0  0  0  0  0
   54.0710  153.7940   25.9730 C   0  0  0  0  0  0  0  0  0  0  0  0
   54.3460  152.4730   26.2020 O   0  0  0  0  0  0  0  0  0  0  0  0
   53.3400  154.5880   26.8610 C   0  0  0  0  0  0  0  0  0  0  0  0
   52.8110  154.0530   28.1160 C   0  0  0  0  0  0  0  0  0  0  0  0
   52.9780  152.8800   28.4460 O   0  0  0  0  0  0  0  0  0  0  0  0
   52.0560  154.9790   28.9920 C   0  0  0  0  0  0  0  0  0  0  0  0
   51.5490  154.4590   30.1690 O   0  0  0  0  0  0  0  0  0  0  0  0
   49.9150  156.9470   29.9280 C   0  0  0  0  0  0  0  0  0  0  0  0
   49.1910  157.9040   30.6510 C   0  0  0  0  0  0  0  0  0  0  0  0
   49.6540  159.2250   30.8650 C   0  0  0  0  0  0  0  0  0  0  0  0
   48.7590  160.2070   31.6720 C   0  0  0  0  0  0  0  0  0  0  0  0
   47.2770  159.7440   31.7940 C   0  0  0  0  0  0  0  0  0  0  0  0
   49.2360  160.3680   33.1330 C   0  0  0  0  0  0  0  0  0  0  0  0
   48.7050  161.5750   30.9580 C   0  0  0  0  0  0  0  0  0  0  0  0
   51.7120  160.9100   32.5272 H   0  0  0  0  0  0  0  0  0  0  0  0
   53.1983  160.3090   31.7169 H   0  0  0  0  0  0  0  0  0  0  0  0
   52.8230  162.0657   31.7169 H   0  0  0  0  0  0  0  0  0  0  0  0
   50.8619  161.6889   30.3049 H   0  0  0  0  0  0  0  0  0  0  0  0
   52.3342  160.9426   29.5422 H   0  0  0  0  0  0  0  0  0  0  0  0
   52.5901  158.8379   29.1062 H   0  0  0  0  0  0  0  0  0  0  0  0
   53.3907  157.5330   25.1418 H   0  0  0  0  0  0  0  0  0  0  0  0
   54.6970  156.1161   23.5542 H   0  0  0  0  0  0  0  0  0  0  0  0
   55.1363  153.7173   24.0906 H   0  0  0  0  0  0  0  0  0  0  0  0
   54.3370  151.8630   25.4910 H   0  0  0  0  0  0  0  0  0  0  0  0
   50.9780  154.9770   30.7020 H   0  0  0  0  0  0  0  0  0  0  0  0
   49.5017  155.9360   29.7975 H   0  0  0  0  0  0  0  0  0  0  0  0
   48.2167  157.6156   31.0724 H   0  0  0  0  0  0  0  0  0  0  0  0
   47.0056  159.6592   32.8566 H   0  0  0  0  0  0  0  0  0  0  0  0
   46.6215  160.4802   31.3058 H   0  0  0  0  0  0  0  0  0  0  0  0
   47.1571  158.7656   31.3058 H   0  0  0  0  0  0  0  0  0  0  0  0
   48.4202  160.0926   33.8175 H   0  0  0  0  0  0  0  0  0  0  0  0
   50.1009  159.7120   33.3107 H   0  0  0  0  0  0  0  0  0  0  0  0
   49.5265  161.4140   33.3107 H   0  0  0  0  0  0  0  0  0  0  0  0
   48.6733  162.3790   31.7080 H   0  0  0  0  0  0  0  0  0  0  0  0
   49.5991  161.6957   30.3287 H   0  0  0  0  0  0  0  0  0  0  0  0
   47.8042  161.6248   30.3287 H   0  0  0  0  0  0  0  0  0  0  0  0
  1  2  1  0
  2  3  1  0
  3  4  2  0
  4  5  1  0
  5  6  1  0
  6  7  1  0
  7  8  1  0
  8  9  2  0
  9 10  1  0
 10 11  2  0
 11 12  1  0
 12 13  1  0
 12 14  2  0
 14 15  1  0
 15 16  2  0
 15 17  1  0
 17 18  1  0
  5 19  2  0
 19 20  1  0
 20 21  2  0
 21 22  1  0
 22 23  1  0
 22 24  1  0
 22 25  1  0
 21  3  1  0
 17  6  2  0
 14  8  1  0
  1 26  1  0
  1 27  1  0
  1 28  1  0
  2 29  1  0
  2 30  1  0
  4 31  1  0
  9 32  1  0
 10 33  1  0
 11 34  1  0
 13 35  1  0
 18 36  1  0
 19 37  1  0
 20 38  1  0
 23 39  1  0
 23 40  1  0
 23 41  1  0
 24 42  1  0
 24 43  1  0
 24 44  1  0
 25 45  1  0
 25 46  1  0
 25 47  1  0
M  END
>  <meeko>  (1) 
{"is_sidechain": [false], "free_energy": -11.205, "intermolecular_energy": -13.825, "internal_energy": -0.115}

$$$$
cand_038_out
     RDKit          3D

 47 49  0  0  0  0  0  0  0  0999 V2000
   47.2840  159.4040   30.6410 C   0  0  0  0  0  0  0  0  0  0  0  0
   48.2970  158.5310   31.3730 C   0  0  0  0  0  0  0  0  0  0  0  0
   49.7050  158.7130   30.8430 C   0  0  0  0  0  0  0  0  0  0  0  0
   50.1860  157.6130   30.0810 C   0  0  0  0  0  0  0  0  0  0  0  0
   51.4520  157.5930   29.4920 C   0  0  0  0  0  0  0  0  0  0  0  0
   51.9460  156.4320   28.7220 C   0  0  0  0  0  0  0  0  0  0  0  0
   52.4890  156.7920   27.4930 O   0  0  0  0  0  0  0  0  0  0  0  0
   52.9860  155.8100   26.6760 C   0  0  0  0  0  0  0  0  0  0  0  0
   53.5350  156.2170   25.4580 C   0  0  0  0  0  0  0  0  0  0  0  0
   54.0570  155.2670   24.5770 C   0  0  0  0  0  0  0  0  0  0  0  0
   54.0300  153.9120   24.9120 C   0  0  0  0  0  0  0  0  0  0  0  0
   53.4800  153.5080   26.1270 C   0  0  0  0  0  0  0  0  0  0  0  0
   53.4840  152.1660   26.3910 O   0  0  0  0  0  0  0  0  0  0  0  0
   52.9590  154.4590   27.0080 C   0  0  0  0  0  0  0  0  0  0  0  0
   52.3730  154.0780   28.2940 C   0  0  0  0  0  0  0  0  0  0  0  0
   52.3050  152.9050   28.6570 O   0  0  0  0  0  0  0  0  0  0  0  0
   51.8550  155.1630   29.1600 C   0  0  0  0  0  0  0  0  0  0  0  0
   51.2920  154.7900   30.3670 O   0  0  0  0  0  0  0  0  0  0  0  0
   52.2690  158.7000   29.6920 C   0  0  0  0  0  0  0  0  0  0  0  0
   51.8190  159.7940   30.4420 C   0  0  0  0  0  0  0  0  0  0  0  0
   50.5340  159.8500   31.0350 C   0  0  0  0  0  0  0  0  0  0  0  0
   50.1470  161.1100   31.8580 C   0  0  0  0  0  0  0  0  0  0  0  0
   48.9800  161.9300   31.2340 C   0  0  0  0  0  0  0  0  0  0  0  0
   49.6530  160.7520   33.2780 C   0  0  0  0  0  0  0  0  0  0  0  0
   51.3450  162.0830   31.9230 C   0  0  0  0  0  0  0  0  0  0  0  0
   46.6631  159.9391   31.3747 H   0  0  0  0  0  0  0  0  0  0  0  0
   47.8153  160.1318   30.0101 H   0  0  0  0  0  0  0  0  0  0  0  0
   46.6426  158.7711   30.0101 H   0  0  0  0  0  0  0  0  0  0  0  0
   48.2845  158.7947   32.4408 H   0  0  0  0  0  0  0  0  0  0  0  0
   48.0117  157.4806   31.2143 H   0  0  0  0  0  0  0  0  0  0  0  0
   49.5315  156.7387   29.9496 H   0  0  0  0  0  0  0  0  0  0  0  0
   53.5563  157.2843   25.1928 H   0  0  0  0  0  0  0  0  0  0  0  0
   54.4900  155.5870   23.6178 H   0  0  0  0  0  0  0  0  0  0  0  0
   54.4421  153.1646   24.2181 H   0  0  0  0  0  0  0  0  0  0  0  0
   52.6940  151.6700   26.3090 H   0  0  0  0  0  0  0  0  0  0  0  0
   51.3440  153.8990   30.6520 H   0  0  0  0  0  0  0  0  0  0  0  0
   53.2791  158.7168   29.2568 H   0  0  0  0  0  0  0  0  0  0  0  0
   52.4959  160.6505   30.5769 H   0  0  0  0  0  0  0  0  0  0  0  0
   48.3650  162.3621   32.0372 H   0  0  0  0  0  0  0  0  0  0  0  0
   49.3916  162.7385   30.6120 H   0  0  0  0  0  0  0  0  0  0  0  0
   48.3588  161.2688   30.6120 H   0  0  0  0  0  0  0  0  0  0  0  0
   50.3074  161.2262   34.0243 H   0  0  0  0  0  0  0  0  0  0  0  0
   48.6230  161.1147   33.4102 H   0  0  0  0  0  0  0  0  0  0  0  0
   49.6771  159.6602   33.4102 H   0  0  0  0  0  0  0  0  0  0  0  0
   51.5955  162.2864   32.9746 H   0  0  0  0  0  0  0  0  0  0  0  0
   52.2125  161.6305   31.4203 H   0  0  0  0  0  0  0  0  0  0  0  0
   51.0801  163.0249   31.4203 H   0  0  0  0  0  0  0  0  0  0  0  0
  1  2  1  0
  2  3  1  0
  3  4  2  0
  4  5  1  0
  5  6  1  0
  6  7  1  0
  7  8  1  0
  8  9  2  0
  9 10  1  0
 10 11  2  0
 11 12  1  0
 12 13  1  0
 12 14  2  0
 14 15  1  0
 15 16  2  0
 15 17  1  0
 17 18  1  0
  5 19  2  0
 19 20  1  0
 20 21  2  0
 21 22  1  0
 22 23  1  0
 22 24  1  0
 22 25  1  0
 21  3  1  0
 17  6  2  0
 14  8  1  0
  1 26  1  0
  1 27  1  0
  1 28  1  0
  2 29  1  0
  2 30  1  0
  4 31  1  0
  9 32  1  0
 10 33  1  0
 11 34  1  0
 13 35  1  0
 18 36  1  0
 19 37  1  0
 20 38  1  0
 23 39  1  0
 23 40  1  0
 23 41  1  0
 24 42  1  0
 24 43  1  0
 24 44  1  0
 25 45  1  0
 25 46  1  0
 25 47  1  0
M  END
>  <meeko>  (2) 
{"is_sidechain": [false], "free_energy": -10.257, "intermolecular_energy": -12.919, "internal_energy": 0.149}

$$$$
cand_038_out
     RDKit          3D

 47 49  0  0  0  0  0  0  0  0999 V2000
   52.9460  160.8420   30.4370 C   0  0  0  0  0  0  0  0  0  0  0  0
   51.4840  160.9190   30.8640 C   0  0  0  0  0  0  0  0  0  0  0  0
   50.7430  159.6190   30.6250 C   0  0  0  0  0  0  0  0  0  0  0  0
   51.4630  158.6750   29.8420 C   0  0  0  0  0  0  0  0  0  0  0  0
   50.9600  157.4110   29.5240 C   0  0  0  0  0  0  0  0  0  0  0  0
   51.7120  156.4500   28.6900 C   0  0  0  0  0  0  0  0  0  0  0  0
   52.2950  157.0430   27.5750 O   0  0  0  0  0  0  0  0  0  0  0  0
   53.0240  156.2640   26.7150 C   0  0  0  0  0  0  0  0  0  0  0  0
   53.6030  156.9020   25.6170 C   0  0  0  0  0  0  0  0  0  0  0  0
   54.3570  156.1660   24.7000 C   0  0  0  0  0  0  0  0  0  0  0  0
   54.5310  154.7920   24.8810 C   0  0  0  0  0  0  0  0  0  0  0  0
   53.9520  154.1570   25.9760 C   0  0  0  0  0  0  0  0  0  0  0  0
   54.1610  152.8100   26.0920 O   0  0  0  0  0  0  0  0  0  0  0  0
   53.1980  154.8950   26.8930 C   0  0  0  0  0  0  0  0  0  0  0  0
   52.5720  154.2670   28.0580 C   0  0  0  0  0  0  0  0  0  0  0  0
   52.6740  153.0620   28.2810 O   0  0  0  0  0  0  0  0  0  0  0  0
   51.8010  155.1380   28.9750 C   0  0  0  0  0  0  0  0  0  0  0  0
   51.2030  154.5310   30.0650 O   0  0  0  0  0  0  0  0  0  0  0  0
   49.6890  157.0930   29.9860 C   0  0  0  0  0  0  0  0  0  0  0  0
   48.9580  158.0070   30.7570 C   0  0  0  0  0  0  0  0  0  0  0  0
   49.4500  159.2880   31.1100 C   0  0  0  0  0  0  0  0  0  0  0  0
   48.5450  160.2260   31.9570 C   0  0  0  0  0  0  0  0  0  0  0  0
   48.5120  161.6950   31.4410 C   0  0  0  0  0  0  0  0  0  0  0  0
   47.0650  159.7780   31.9450 C   0  0  0  0  0  0  0  0  0  0  0  0
   49.0820  160.3090   33.4020 C   0  0  0  0  0  0  0  0  0  0  0  0
   53.5875  160.8082   31.3299 H   0  0  0  0  0  0  0  0  0  0  0  0
   53.1053  159.9342   29.8365 H   0  0  0  0  0  0  0  0  0  0  0  0
   53.1998  161.7280   29.8365 H   0  0  0  0  0  0  0  0  0  0  0  0
   51.4415  161.1577   31.9369 H   0  0  0  0  0  0  0  0  0  0  0  0
   50.9983  161.6981   30.2581 H   0  0  0  0  0  0  0  0  0  0  0  0
   52.4604  158.9524   29.4702 H   0  0  0  0  0  0  0  0  0  0  0  0
   53.4656  157.9839   25.4738 H   0  0  0  0  0  0  0  0  0  0  0  0
   54.8140  156.6687   23.8349 H   0  0  0  0  0  0  0  0  0  0  0  0
   55.1249  154.2124   24.1590 H   0  0  0  0  0  0  0  0  0  0  0  0
   54.0590  152.2550   25.3440 H   0  0  0  0  0  0  0  0  0  0  0  0
   50.4940  153.9320   29.9360 H   0  0  0  0  0  0  0  0  0  0  0  0
   49.2516  156.1131   29.7440 H   0  0  0  0  0  0  0  0  0  0  0  0
   47.9555  157.7163   31.1043 H   0  0  0  0  0  0  0  0  0  0  0  0
   48.4965  162.3844   32.2980 H   0  0  0  0  0  0  0  0  0  0  0  0
   49.4060  161.8893   30.8303 H   0  0  0  0  0  0  0  0  0  0  0  0
   47.6102  161.8489   30.8303 H   0  0  0  0  0  0  0  0  0  0  0  0
   46.7064  159.6694   32.9792 H   0  0  0  0  0  0  0  0  0  0  0  0
   46.4577  160.5326   31.4236 H   0  0  0  0  0  0  0  0  0  0  0  0
   46.9781  158.8133   31.4236 H   0  0  0  0  0  0  0  0  0  0  0  0
   48.2502  160.1804   34.1102 H   0  0  0  0  0  0  0  0  0  0  0  0
   49.8264  159.5153   33.5627 H   0  0  0  0  0  0  0  0  0  0  0  0
   49.5520  161.2905   33.5627 H   0  0  0  0  0  0  0  0  0  0  0  0
  1  2  1  0
  2  3  1  0
  3  4  2  0
  4  5  1  0
  5  6  1  0
  6  7  1  0
  7  8  1  0
  8  9  2  0
  9 10  1  0
 10 11  2  0
 11 12  1  0
 12 13  1  0
 12 14  2  0
 14 15  1  0
 15 16  2  0
 15 17  1  0
 17 18  1  0
  5 19  2  0
 19 20  1  0
 20 21  2  0
 21 22  1  0
 22 23  1  0
 22 24  1  0
 22 25  1  0
 21  3  1  0
 17  6  2  0
 14  8  1  0
  1 26  1  0
  1 27  1  0
  1 28  1  0
  2 29  1  0
  2 30  1  0
  4 31  1  0
  9 32  1  0
 10 33  1  0
 11 34  1  0
 13 35  1  0
 18 36  1  0
 19 37  1  0
 20 38  1  0
 23 39  1  0
 23 40  1  0
 23 41  1  0
 24 42  1  0
 24 43  1  0
 24 44  1  0
 25 45  1  0
 25 46  1  0
 25 47  1  0
M  END
>  <meeko>  (3) 
{"is_sidechain": [false], "free_energy": -10.243, "intermolecular_energy": -12.641, "internal_energy": -0.112}

$$$$
cand_038_out
     RDKit          3D

 47 49  0  0  0  0  0  0  0  0999 V2000
   54.8560  156.4750   24.8000 C   0  0  0  0  0  0  0  0  0  0  0  0
   53.4670  155.8460   24.8300 C   0  0  0  0  0  0  0  0  0  0  0  0
   53.0450  155.4480   26.2300 C   0  0  0  0  0  0  0  0  0  0  0  0
   52.5990  156.5330   27.0340 C   0  0  0  0  0  0  0  0  0  0  0  0
   52.1530  156.3710   28.3480 C   0  0  0  0  0  0  0  0  0  0  0  0
   51.7140  157.5120   29.1780 C   0  0  0  0  0  0  0  0  0  0  0  0
   50.3720  157.4360   29.5330 O   0  0  0  0  0  0  0  0  0  0  0  0
   49.8330  158.4320   30.3050 C   0  0  0  0  0  0  0  0  0  0  0  0
   48.4860  158.3090   30.6510 C   0  0  0  0  0  0  0  0  0  0  0  0
   47.8750  159.2900   31.4330 C   0  0  0  0  0  0  0  0  0  0  0  0
   48.6080  160.3950   31.8710 C   0  0  0  0  0  0  0  0  0  0  0  0
   49.9520  160.5170   31.5240 C   0  0  0  0  0  0  0  0  0  0  0  0
   50.6100  161.6240   31.9840 O   0  0  0  0  0  0  0  0  0  0  0  0
   50.5630  159.5340   30.7410 C   0  0  0  0  0  0  0  0  0  0  0  0
   51.9720  159.6230   30.3540 C   0  0  0  0  0  0  0  0  0  0  0  0
   52.6820  160.5680   30.6930 O   0  0  0  0  0  0  0  0  0  0  0  0
   52.5270  158.5260   29.5300 C   0  0  0  0  0  0  0  0  0  0  0  0
   53.8560  158.6270   29.1590 O   0  0  0  0  0  0  0  0  0  0  0  0
   52.1750  155.0860   28.8780 C   0  0  0  0  0  0  0  0  0  0  0  0
   52.6130  154.0020   28.1070 C   0  0  0  0  0  0  0  0  0  0  0  0
   53.0540  154.1330   26.7670 C   0  0  0  0  0  0  0  0  0  0  0  0
   53.5320  152.8610   26.0120 C   0  0  0  0  0  0  0  0  0  0  0  0
   53.4970  153.0050   24.4620 C   0  0  0  0  0  0  0  0  0  0  0  0
   55.0020  152.5070   26.3350 C   0  0  0  0  0  0  0  0  0  0  0  0
   52.5970  151.6760   26.3360 C   0  0  0  0  0  0  0  0  0  0  0  0
   55.2085  156.6347   25.8297 H   0  0  0  0  0  0  0  0  0  0  0  0
   55.5512  155.8039   24.2743 H   0  0  0  0  0  0  0  0  0  0  0  0
   54.8102  157.4402   24.2743 H   0  0  0  0  0  0  0  0  0  0  0  0
   52.7414  156.5723   24.4350 H   0  0  0  0  0  0  0  0  0  0  0  0
   53.4978  154.9337   24.2161 H   0  0  0  0  0  0  0  0  0  0  0  0
   52.6055  157.5446   26.6021 H   0  0  0  0  0  0  0  0  0  0  0  0
   47.9067  157.4393   30.3074 H   0  0  0  0  0  0  0  0  0  0  0  0
   46.8136  159.1927   31.7050 H   0  0  0  0  0  0  0  0  0  0  0  0
   48.1256  161.1671   32.4884 H   0  0  0  0  0  0  0  0  0  0  0  0
   51.4630  161.8310   31.6580 H   0  0  0  0  0  0  0  0  0  0  0  0
   54.4840  158.0200   29.4990 H   0  0  0  0  0  0  0  0  0  0  0  0
   51.8449  154.9189   29.9139 H   0  0  0  0  0  0  0  0  0  0  0  0
   52.6147  153.0012   28.5636 H   0  0  0  0  0  0  0  0  0  0  0  0
   53.2450  154.0421   24.1957 H   0  0  0  0  0  0  0  0  0  0  0  0
   54.4834  152.7494   24.0476 H   0  0  0  0  0  0  0  0  0  0  0  0
   52.7379  152.3252   24.0476 H   0  0  0  0  0  0  0  0  0  0  0  0
   55.1400  152.4738   27.4258 H   0  0  0  0  0  0  0  0  0  0  0  0
   55.2457  151.5245   25.9045 H   0  0  0  0  0  0  0  0  0  0  0  0
   55.6662  153.2709   25.9045 H   0  0  0  0  0  0  0  0  0  0  0  0
   52.5098  151.5654   27.4269 H   0  0  0  0  0  0  0  0  0  0  0  0
   51.6024  151.8655   25.9060 H   0  0  0  0  0  0  0  0  0  0  0  0
   53.0126  150.7528   25.9060 H   0  0  0  0  0  0  0  0  0  0  0  0
  1  2  1  0
  2  3  1  0
  3  4  2  0
  4  5  1  0
  5  6  1  0
  6  7  1  0
  7  8  1  0
  8  9  2  0
  9 10  1  0
 10 11  2  0
 11 12  1  0
 12 13  1  0
 12 14  2  0
 14 15  1  0
 15 16  2  0
 15 17  1  0
 17 18  1  0
  5 19  2  0
 19 20  1  0
 20 21  2  0
 21 22  1  0
 22 23  1  0
 22 24  1  0
 22 25  1  0
 21  3  1  0
 17  6  2  0
 14  8  1  0
  1 26  1  0
  1 27  1  0
  1 28  1  0
  2 29  1  0
  2 30  1  0
  4 31  1  0
  9 32  1  0
 10 33  1  0
 11 34  1  0
 13 35  1  0
 18 36  1  0
 19 37  1  0
 20 38  1  0
 23 39  1  0
 23 40  1  0
 23 41  1  0
 24 42  1  0
 24 43  1  0
 24 44  1  0
 25 45  1  0
 25 46  1  0
 25 47  1  0
M  END
>  <meeko>  (4) 
{"is_sidechain": [false], "free_energy": -9.508, "intermolecular_energy": -11.718, "internal_energy": -0.128}

$$$$
cand_038_out
     RDKit          3D

 47 49  0  0  0  0  0  0  0  0999 V2000
   55.0930  156.7180   24.6080 C   0  0  0  0  0  0  0  0  0  0  0  0
   53.6460  156.2350   24.5800 C   0  0  0  0  0  0  0  0  0  0  0  0
   53.2160  155.6260   25.8990 C   0  0  0  0  0  0  0  0  0  0  0  0
   52.6040  156.5470   26.7930 C   0  0  0  0  0  0  0  0  0  0  0  0
   52.1240  156.1790   28.0520 C   0  0  0  0  0  0  0  0  0  0  0  0
   51.5100  157.1530   28.9780 C   0  0  0  0  0  0  0  0  0  0  0  0
   52.3240  158.2550   29.2210 O   0  0  0  0  0  0  0  0  0  0  0  0
   51.8740  159.2380   30.0630 C   0  0  0  0  0  0  0  0  0  0  0  0
   52.7170  160.3320   30.2660 C   0  0  0  0  0  0  0  0  0  0  0  0
   52.3210  161.3680   31.1150 C   0  0  0  0  0  0  0  0  0  0  0  0
   51.0840  161.3110   31.7600 C   0  0  0  0  0  0  0  0  0  0  0  0
   50.2450  160.2180   31.5570 C   0  0  0  0  0  0  0  0  0  0  0  0
   49.0490  160.2250   32.2200 O   0  0  0  0  0  0  0  0  0  0  0  0
   50.6420  159.1820   30.7070 C   0  0  0  0  0  0  0  0  0  0  0  0
   49.7910  158.0150   30.4650 C   0  0  0  0  0  0  0  0  0  0  0  0
   48.6920  157.8880   31.0020 O   0  0  0  0  0  0  0  0  0  0  0  0
   50.3000  156.9760   29.5410 C   0  0  0  0  0  0  0  0  0  0  0  0
   49.4930  155.8720   29.3300 O   0  0  0  0  0  0  0  0  0  0  0  0
   52.2830  154.8520   28.4350 C   0  0  0  0  0  0  0  0  0  0  0  0
   52.8860  153.9260   27.5730 C   0  0  0  0  0  0  0  0  0  0  0  0
   53.3650  154.2670   26.2850 C   0  0  0  0  0  0  0  0  0  0  0  0
   54.0310  153.1600   25.4200 C   0  0  0  0  0  0  0  0  0  0  0  0
   53.7450  153.3020   23.8960 C   0  0  0  0  0  0  0  0  0  0  0  0
   55.5720  153.1810   25.5290 C   0  0  0  0  0  0  0  0  0  0  0  0
   53.4700  151.7770   25.8170 C   0  0  0  0  0  0  0  0  0  0  0  0
   55.4227  156.8281   25.6516 H   0  0  0  0  0  0  0  0  0  0  0  0
   55.7341  155.9852   24.0963 H   0  0  0  0  0  0  0  0  0  0  0  0
   55.1654  157.6890   24.0963 H   0  0  0  0  0  0  0  0  0  0  0  0
   52.9920  157.0906   24.3558 H   0  0  0  0  0  0  0  0  0  0  0  0
   53.5671  155.4551   23.8083 H   0  0  0  0  0  0  0  0  0  0  0  0
   52.5041  157.5965   26.4789 H   0  0  0  0  0  0  0  0  0  0  0  0
   53.6916  160.3781   29.7581 H   0  0  0  0  0  0  0  0  0  0  0  0
   52.9848  162.2303   31.2757 H   0  0  0  0  0  0  0  0  0  0  0  0
   50.7726  162.1281   32.4274 H   0  0  0  0  0  0  0  0  0  0  0  0
   48.9250  160.7920   32.9550 H   0  0  0  0  0  0  0  0  0  0  0  0
   48.8340  155.8940   28.6640 H   0  0  0  0  0  0  0  0  0  0  0  0
   51.9318  154.5255   29.4250 H   0  0  0  0  0  0  0  0  0  0  0  0
   52.9921  152.8853   27.9131 H   0  0  0  0  0  0  0  0  0  0  0  0
   52.7685  153.7868   23.7498 H   0  0  0  0  0  0  0  0  0  0  0  0
   54.5316  153.9142   23.4308 H   0  0  0  0  0  0  0  0  0  0  0  0
   53.7328  152.3053   23.4308 H   0  0  0  0  0  0  0  0  0  0  0  0
   55.8646  153.1850   26.5894 H   0  0  0  0  0  0  0  0  0  0  0  0
   55.9865  152.2884   25.0376 H   0  0  0  0  0  0  0  0  0  0  0  0
   55.9621  154.0845   25.0376 H   0  0  0  0  0  0  0  0  0  0  0  0
   53.4370  151.6957   26.9135 H   0  0  0  0  0  0  0  0  0  0  0  0
   52.4544  151.6627   25.4101 H   0  0  0  0  0  0  0  0  0  0  0  0
   54.1190  150.9875   25.4101 H   0  0  0  0  0  0  0  0  0  0  0  0
  1  2  1  0
  2  3  1  0
  3  4  2  0
  4  5  1  0
  5  6  1  0
  6  7  1  0
  7  8  1  0
  8  9  2  0
  9 10  1  0
 10 11  2  0
 11 12  1  0
 12 13  1  0
 12 14  2  0
 14 15  1  0
 15 16  2  0
 15 17  1  0
 17 18  1  0
  5 19  2  0
 19 20  1  0
 20 21  2  0
 21 22  1  0
 22 23  1  0
 22 24  1  0
 22 25  1  0
 21  3  1  0
 17  6  2  0
 14  8  1  0
  1 26  1  0
  1 27  1  0
  1 28  1  0
  2 29  1  0
  2 30  1  0
  4 31  1  0
  9 32  1  0
 10 33  1  0
 11 34  1  0
 13 35  1  0
 18 36  1  0
 19 37  1  0
 20 38  1  0
 23 39  1  0
 23 40  1  0
 23 41  1  0
 24 42  1  0
 24 43  1  0
 24 44  1  0
 25 45  1  0
 25 46  1  0
 25 47  1  0
M  END
>  <meeko>  (5) 
{"is_sidechain": [false], "free_energy": -8.64, "intermolecular_energy": -10.533, "internal_energy": -0.242}

$$$$
