cand_015_out
     RDKit          3D

 36 38  0  0  0  0  0  0  0  0999 V2000
   49.2790  160.7640   33.1320 C   0  0  0  0  0  0  0  0  0  0  0  0
   49.3830  160.7630   31.7990 C   0  0  0  0  0  0  0  0  0  0  0  0
   48.8660  161.8140   31.1240 F   0  0  0  0  0  0  0  0  0  0  0  0
   49.9910  159.6790   31.0080 C   0  0  0  0  0  0  0  0  0  0  0  0
   49.2770  158.4860   30.8010 C   0  0  0  0  0  0  0  0  0  0  0  0
   49.8320  157.4240   30.0780 C   0  0  0  0  0  0  0  0  0  0  0  0
   51.1180  157.5230   29.5410 C   0  0  0  0  0  0  0  0  0  0  0  0
   51.7400  156.4050   28.8000 C   0  0  0  0  0  0  0  0  0  0  0  0
   52.2960  156.8010   27.5890 O   0  0  0  0  0  0  0  0  0  0  0  0
   52.9070  155.8610   26.8010 C   0  0  0  0  0  0  0  0  0  0  0  0
   53.4640  156.3060   25.6000 C   0  0  0  0  0  0  0  0  0  0  0  0
   54.0990  155.3990   24.7490 C   0  0  0  0  0  0  0  0  0  0  0  0
   54.1770  154.0490   25.0960 C   0  0  0  0  0  0  0  0  0  0  0  0
   53.6200  153.6080   26.2940 C   0  0  0  0  0  0  0  0  0  0  0  0
   53.7310  152.2730   26.5730 O   0  0  0  0  0  0  0  0  0  0  0  0
   52.9850  154.5160   27.1460 C   0  0  0  0  0  0  0  0  0  0  0  0
   52.3880  154.0940   28.4140 C   0  0  0  0  0  0  0  0  0  0  0  0
   52.4080  152.9230   28.7860 O   0  0  0  0  0  0  0  0  0  0  0  0
   51.7440  155.1360   29.2470 C   0  0  0  0  0  0  0  0  0  0  0  0
   51.1710  154.7240   30.4370 O   0  0  0  0  0  0  0  0  0  0  0  0
   51.8410  158.7050   29.7610 C   0  0  0  0  0  0  0  0  0  0  0  0
   51.2940  159.7870   30.4780 C   0  0  0  0  0  0  0  0  0  0  0  0
   52.1350  161.0220   30.6710 C   0  0  0  0  0  0  0  0  0  0  0  0
   49.6875  159.9262   33.7162 H   0  0  0  0  0  0  0  0  0  0  0  0
   48.7849  161.6026   33.6445 H   0  0  0  0  0  0  0  0  0  0  0  0
   48.2629  158.3852   31.2151 H   0  0  0  0  0  0  0  0  0  0  0  0
   49.2500  156.5022   29.9311 H   0  0  0  0  0  0  0  0  0  0  0  0
   53.4026  157.3693   25.3249 H   0  0  0  0  0  0  0  0  0  0  0  0
   54.5386  155.7490   23.8033 H   0  0  0  0  0  0  0  0  0  0  0  0
   54.6772  153.3353   24.4249 H   0  0  0  0  0  0  0  0  0  0  0  0
   53.1140  151.6660   26.2130 H   0  0  0  0  0  0  0  0  0  0  0  0
   51.6080  154.8890   31.2490 H   0  0  0  0  0  0  0  0  0  0  0  0
   52.8629  158.7891   29.3627 H   0  0  0  0  0  0  0  0  0  0  0  0
   52.2649  161.2128   31.7465 H   0  0  0  0  0  0  0  0  0  0  0  0
   53.1194  160.8720   30.2037 H   0  0  0  0  0  0  0  0  0  0  0  0
   51.6347  161.8830   30.2037 H   0  0  0  0  0  0  0  0  0  0  0  0
  1  2  2  0
  2  3  1  0
  2  4  1  0
  4  5  2  0
  5  6  1  0
  6  7  2  0
  7  8  1  0
  8  9  1  0
  9 10  1  0
 10 11  2  0
 11 12  1  0
 12 13  2  0
 13 14  1  0
 14 15  1  0
 14 16  2  0
 16 17  1  0
 17 18  2  0
 17 19  1  0
 19 20  1  0
  7 21  1  0
 21 22  2  0
 22 23  1  0
 22  4  1  0
 19  8  2  0
 16 10  1  0
  1 24  1  0
  1 25  1  0
  5 26  1  0
  6 27  1  0
 11 28  1  0
 12 29  1  0
 13 30  1  0
 15 31  1  0
 20 32  1  0
 21 33  1  0
 23 34  1  0
 23 35  1  0
 23 36  1  0
M  END
>  <meeko>  (1) 
{"is_sidechain": [false], "free_energy": -11.186, "intermolecular_energy": -13.148, "internal_energy": -0.308}

$$$$
cand_015_out
     RDKit          3D

 36 38  0  0  0  0  0  0  0  0999 V2000
   50.1420  161.4840   32.8770 C   0  0  0  0  0  0  0  0  0  0  0  0
   49.8160  161.1270   31.6300 C   0  0  0  0  0  0  0  0  0  0  0  0
   48.9230  161.8950   30.9660 F   0  0  0  0  0  0  0  0  0  0  0  0
   50.3340  159.9340   30.9390 C   0  0  0  0  0  0  0  0  0  0  0  0
   51.6440  159.9410   30.4290 C   0  0  0  0  0  0  0  0  0  0  0  0
   52.1620  158.8370   29.7430 C   0  0  0  0  0  0  0  0  0  0  0  0
   51.3860  157.6920   29.5460 C   0  0  0  0  0  0  0  0  0  0  0  0
   51.8970  156.5240   28.7980 C   0  0  0  0  0  0  0  0  0  0  0  0
   52.4590  156.8690   27.5740 O   0  0  0  0  0  0  0  0  0  0  0  0
   52.9720  155.8780   26.7780 C   0  0  0  0  0  0  0  0  0  0  0  0
   53.5390  156.2710   25.5640 C   0  0  0  0  0  0  0  0  0  0  0  0
   54.0790  155.3110   24.7040 C   0  0  0  0  0  0  0  0  0  0  0  0
   54.0510  153.9600   25.0570 C   0  0  0  0  0  0  0  0  0  0  0  0
   53.4850  153.5710   26.2680 C   0  0  0  0  0  0  0  0  0  0  0  0
   53.4910  152.2330   26.5520 O   0  0  0  0  0  0  0  0  0  0  0  0
   52.9460  154.5320   27.1290 C   0  0  0  0  0  0  0  0  0  0  0  0
   52.3420  154.1660   28.4110 C   0  0  0  0  0  0  0  0  0  0  0  0
   52.2730  152.9980   28.7890 O   0  0  0  0  0  0  0  0  0  0  0  0
   51.8060  155.2600   29.2520 C   0  0  0  0  0  0  0  0  0  0  0  0
   51.2250  154.9020   30.4560 O   0  0  0  0  0  0  0  0  0  0  0  0
   50.0720  157.6880   30.0380 C   0  0  0  0  0  0  0  0  0  0  0  0
   49.5380  158.7870   30.7390 C   0  0  0  0  0  0  0  0  0  0  0  0
   48.1180  158.7040   31.2350 C   0  0  0  0  0  0  0  0  0  0  0  0
   50.8650  160.8844   33.4495 H   0  0  0  0  0  0  0  0  0  0  0  0
   49.6871  162.3772   33.3301 H   0  0  0  0  0  0  0  0  0  0  0  0
   52.2739  160.8314   30.5720 H   0  0  0  0  0  0  0  0  0  0  0  0
   53.1907  158.8709   29.3548 H   0  0  0  0  0  0  0  0  0  0  0  0
   53.5606  157.3348   25.2850 H   0  0  0  0  0  0  0  0  0  0  0  0
   54.5267  155.6198   23.7478 H   0  0  0  0  0  0  0  0  0  0  0  0
   54.4754  153.2046   24.3793 H   0  0  0  0  0  0  0  0  0  0  0  0
   52.7070  151.8130   26.8470 H   0  0  0  0  0  0  0  0  0  0  0  0
   50.4590  154.3630   30.4640 H   0  0  0  0  0  0  0  0  0  0  0  0
   49.4414  156.8022   29.8717 H   0  0  0  0  0  0  0  0  0  0  0  0
   48.1133  158.7037   32.3350 H   0  0  0  0  0  0  0  0  0  0  0  0
   47.5495  159.5704   30.8661 H   0  0  0  0  0  0  0  0  0  0  0  0
   47.6543  157.7772   30.8661 H   0  0  0  0  0  0  0  0  0  0  0  0
  1  2  2  0
  2  3  1  0
  2  4  1  0
  4  5  2  0
  5  6  1  0
  6  7  2  0
  7  8  1  0
  8  9  1  0
  9 10  1  0
 10 11  2  0
 11 12  1  0
 12 13  2  0
 13 14  1  0
 14 15  1  0
 14 16  2  0
 16 17  1  0
 17 18  2  0
 17 19  1  0
 19 20  1  0
  7 21  1  0
 21 22  2  0
 22 23  1  0
 22  4  1  0
 19  8  2  0
 16 10  1  0
  1 24  1  0
  1 25  1  0
  5 26  1  0
  6 27  1  0
 11 28  1  0
 12 29  1  0
 13 30  1  0
 15 31  1  0
 20 32  1  0
 21 33  1  0
 23 34  1  0
 23 35  1  0
 23 36  1  0
M  END
>  <meeko>  (2) 
{"is_sidechain": [false], "free_energy": -11.037, "intermolecular_energy": -12.978, "internal_energy": -0.303}

$$$$
cand_015_out
     RDKit          3D

 36 38  0  0  0  0  0  0  0  0999 V2000
   52.2160  151.6650   26.3820 C   0  0  0  0  0  0  0  0  0  0  0  0
   53.0780  152.6370   26.6990 C   0  0  0  0  0  0  0  0  0  0  0  0
   54.3820  152.4480   26.3950 F   0  0  0  0  0  0  0  0  0  0  0  0
   52.7140  153.8860   27.3900 C   0  0  0  0  0  0  0  0  0  0  0  0
   52.0770  153.8270   28.6420 C   0  0  0  0  0  0  0  0  0  0  0  0
   51.6930  154.9910   29.3160 C   0  0  0  0  0  0  0  0  0  0  0  0
   51.9320  156.2500   28.7580 C   0  0  0  0  0  0  0  0  0  0  0  0
   51.5070  157.4940   29.4340 C   0  0  0  0  0  0  0  0  0  0  0  0
   50.1670  157.4800   29.8020 O   0  0  0  0  0  0  0  0  0  0  0  0
   49.6430  158.5750   30.4390 C   0  0  0  0  0  0  0  0  0  0  0  0
   48.2960  158.5120   30.8030 C   0  0  0  0  0  0  0  0  0  0  0  0
   47.6980  159.5940   31.4530 C   0  0  0  0  0  0  0  0  0  0  0  0
   48.4460  160.7390   31.7380 C   0  0  0  0  0  0  0  0  0  0  0  0
   49.7890  160.7990   31.3740 C   0  0  0  0  0  0  0  0  0  0  0  0
   50.4620  161.9490   31.6840 O   0  0  0  0  0  0  0  0  0  0  0  0
   50.3860  159.7150   30.7240 C   0  0  0  0  0  0  0  0  0  0  0  0
   51.7940  159.7380   30.3250 C   0  0  0  0  0  0  0  0  0  0  0  0
   52.5160  160.7110   30.5340 O   0  0  0  0  0  0  0  0  0  0  0  0
   52.3320  158.5350   29.6480 C   0  0  0  0  0  0  0  0  0  0  0  0
   53.6610  158.5720   29.2630 O   0  0  0  0  0  0  0  0  0  0  0  0
   52.5510  156.3120   27.5010 C   0  0  0  0  0  0  0  0  0  0  0  0
   52.9540  155.1500   26.8130 C   0  0  0  0  0  0  0  0  0  0  0  0
   53.6120  155.3030   25.4670 C   0  0  0  0  0  0  0  0  0  0  0  0
   51.1468  151.7812   26.6129 H   0  0  0  0  0  0  0  0  0  0  0  0
   52.5761  150.7493   25.8903 H   0  0  0  0  0  0  0  0  0  0  0  0
   51.8769  152.8471   29.1001 H   0  0  0  0  0  0  0  0  0  0  0  0
   51.1978  154.9147   30.2953 H   0  0  0  0  0  0  0  0  0  0  0  0
   47.7066  157.6109   30.5779 H   0  0  0  0  0  0  0  0  0  0  0  0
   46.6374  159.5446   31.7407 H   0  0  0  0  0  0  0  0  0  0  0  0
   47.9751  161.5917   32.2490 H   0  0  0  0  0  0  0  0  0  0  0  0
   50.2210  162.4430   32.4430 H   0  0  0  0  0  0  0  0  0  0  0  0
   54.1230  157.7740   29.0980 H   0  0  0  0  0  0  0  0  0  0  0  0
   52.7268  157.2948   27.0394 H   0  0  0  0  0  0  0  0  0  0  0  0
   54.6750  155.5502   25.6045 H   0  0  0  0  0  0  0  0  0  0  0  0
   53.5242  154.3605   24.9067 H   0  0  0  0  0  0  0  0  0  0  0  0
   53.1174  156.1101   24.9067 H   0  0  0  0  0  0  0  0  0  0  0  0
  1  2  2  0
  2  3  1  0
  2  4  1  0
  4  5  2  0
  5  6  1  0
  6  7  2  0
  7  8  1  0
  8  9  1  0
  9 10  1  0
 10 11  2  0
 11 12  1  0
 12 13  2  0
 13 14  1  0
 14 15  1  0
 14 16  2  0
 16 17  1  0
 17 18  2  0
 17 19  1  0
 19 20  1  0
  7 21  1  0
 21 22  2  0
 22 23  1  0
 22  4  1  0
 19  8  2  0
 16 10  1  0
  1 24  1  0
  1 25  1  0
  5 26  1  0
  6 27  1  0
 11 28  1  0
 12 29  1  0
 13 30  1  0
 15 31  1  0
 20 32  1  0
 21 33  1  0
 23 34  1  0
 23 35  1  0
 23 36  1  0
M  END
>  <meeko>  (3) 
{"is_sidechain": [false], "free_energy": -10.276, "intermolecular_energy": -12.135, "internal_energy": -0.252}

$$$$
cand_015_out
     RDKit          3D

 36 38  0  0  0  0  0  0  0  0999 V2000
   52.9680  153.6530   25.1610 C   0  0  0  0  0  0  0  0  0  0  0  0
   53.2360  153.8150   26.4610 C   0  0  0  0  0  0  0  0  0  0  0  0
   54.0040  152.8830   27.0690 F   0  0  0  0  0  0  0  0  0  0  0  0
   52.7230  154.9200   27.2900 C   0  0  0  0  0  0  0  0  0  0  0  0
   52.9930  156.2490   26.9190 C   0  0  0  0  0  0  0  0  0  0  0  0
   52.5450  157.3230   27.6950 C   0  0  0  0  0  0  0  0  0  0  0  0
   51.8150  157.1030   28.8650 C   0  0  0  0  0  0  0  0  0  0  0  0
   51.3570  158.2190   29.7200 C   0  0  0  0  0  0  0  0  0  0  0  0
   50.0170  158.1140   30.0740 O   0  0  0  0  0  0  0  0  0  0  0  0
   49.4630  159.0860   30.8670 C   0  0  0  0  0  0  0  0  0  0  0  0
   48.1180  158.9330   31.2100 C   0  0  0  0  0  0  0  0  0  0  0  0
   47.4920  159.8890   32.0130 C   0  0  0  0  0  0  0  0  0  0  0  0
   48.2080  160.9960   32.4730 C   0  0  0  0  0  0  0  0  0  0  0  0
   49.5490  161.1460   32.1290 C   0  0  0  0  0  0  0  0  0  0  0  0
   50.1920  162.2520   32.6130 O   0  0  0  0  0  0  0  0  0  0  0  0
   50.1760  160.1880   31.3250 C   0  0  0  0  0  0  0  0  0  0  0  0
   51.5840  160.3080   30.9420 C   0  0  0  0  0  0  0  0  0  0  0  0
   52.2790  161.2560   31.2990 O   0  0  0  0  0  0  0  0  0  0  0  0
   52.1540  159.2360   30.0930 C   0  0  0  0  0  0  0  0  0  0  0  0
   53.4820  159.3650   29.7250 O   0  0  0  0  0  0  0  0  0  0  0  0
   51.5590  155.7770   29.2480 C   0  0  0  0  0  0  0  0  0  0  0  0
   51.9930  154.6830   28.4730 C   0  0  0  0  0  0  0  0  0  0  0  0
   51.6780  153.2910   28.9530 C   0  0  0  0  0  0  0  0  0  0  0  0
   52.3466  154.3902   24.6315 H   0  0  0  0  0  0  0  0  0  0  0  0
   53.3689  152.7825   24.6211 H   0  0  0  0  0  0  0  0  0  0  0  0
   53.5669  156.4477   26.0019 H   0  0  0  0  0  0  0  0  0  0  0  0
   52.7702  158.3526   27.3801 H   0  0  0  0  0  0  0  0  0  0  0  0
   47.5527  158.0613   30.8485 H   0  0  0  0  0  0  0  0  0  0  0  0
   46.4325  159.7696   32.2837 H   0  0  0  0  0  0  0  0  0  0  0  0
   47.7138  161.7480   33.1057 H   0  0  0  0  0  0  0  0  0  0  0  0
   49.8050  163.1000   32.5120 H   0  0  0  0  0  0  0  0  0  0  0  0
   53.7230  159.3240   28.8200 H   0  0  0  0  0  0  0  0  0  0  0  0
   51.0044  155.5866   30.1787 H   0  0  0  0  0  0  0  0  0  0  0  0
   51.6743  153.2745   30.0529 H   0  0  0  0  0  0  0  0  0  0  0  0
   50.6888  152.9890   28.5784 H   0  0  0  0  0  0  0  0  0  0  0  0
   52.4408  152.5926   28.5784 H   0  0  0  0  0  0  0  0  0  0  0  0
  1  2  2  0
  2  3  1  0
  2  4  1  0
  4  5  2  0
  5  6  1  0
  6  7  2  0
  7  8  1  0
  8  9  1  0
  9 10  1  0
 10 11  2  0
 11 12  1  0
 12 13  2  0
 13 14  1  0
 14 15  1  0
 14 16  2  0
 16 17  1  0
 17 18  2  0
 17 19  1  0
 19 20  1  0
  7 21  1  0
 21 22  2  0
 22 23  1  0
 22  4  1  0
 19  8  2  0
 16 10  1  0
  1 24  1  0
  1 25  1  0
  5 26  1  0
  6 27  1  0
 11 28  1  0
 12 29  1  0
 13 30  1  0
 15 31  1  0
 20 32  1  0
 21 33  1  0
 23 34  1  0
 23 35  1  0
 23 36  1  0
M  END
>  <meeko>  (4) 
{"is_sidechain": [false], "free_energy": -9.522, "intermolecular_energy": -11.334, "internal_energy": -0.165}

$$$$
cand_015_out
     RDKit          3D

 36 38  0  0  0  0  0  0  0  0999 V2000
   52.7020  151.9510   25.9000 C   0  0  0  0  0  0  0  0  0  0  0  0
   53.4240  152.8390   26.5910 C   0  0  0  0  0  0  0  0  0  0  0  0
   54.7620  152.6550   26.6510 F   0  0  0  0  0  0  0  0  0  0  0  0
   52.8610  153.9860   27.3230 C   0  0  0  0  0  0  0  0  0  0  0  0
   52.1660  153.7700   28.5260 C   0  0  0  0  0  0  0  0  0  0  0  0
   51.5940  154.8320   29.2350 C   0  0  0  0  0  0  0  0  0  0  0  0
   51.6990  156.1430   28.7630 C   0  0  0  0  0  0  0  0  0  0  0  0
   51.0780  157.2790   29.4760 C   0  0  0  0  0  0  0  0  0  0  0  0
   51.9740  158.3100   29.7340 O   0  0  0  0  0  0  0  0  0  0  0  0
   51.5270  159.4280   30.3910 C   0  0  0  0  0  0  0  0  0  0  0  0
   52.4570  160.4440   30.6160 C   0  0  0  0  0  0  0  0  0  0  0  0
   52.0680  161.6090   31.2830 C   0  0  0  0  0  0  0  0  0  0  0  0
   50.7520  161.7570   31.7240 C   0  0  0  0  0  0  0  0  0  0  0  0
   49.8260  160.7410   31.4980 C   0  0  0  0  0  0  0  0  0  0  0  0
   48.5540  160.9500   31.9560 O   0  0  0  0  0  0  0  0  0  0  0  0
   50.2160  159.5760   30.8300 C   0  0  0  0  0  0  0  0  0  0  0  0
   49.2750  158.4850   30.5720 C   0  0  0  0  0  0  0  0  0  0  0  0
   48.1020  158.5370   30.9360 O   0  0  0  0  0  0  0  0  0  0  0  0
   49.7860  157.2970   29.8510 C   0  0  0  0  0  0  0  0  0  0  0  0
   48.8920  156.2660   29.6240 O   0  0  0  0  0  0  0  0  0  0  0  0
   52.3770  156.3610   27.5540 C   0  0  0  0  0  0  0  0  0  0  0  0
   52.9670  155.3040   26.8320 C   0  0  0  0  0  0  0  0  0  0  0  0
   53.6770  155.6220   25.5430 C   0  0  0  0  0  0  0  0  0  0  0  0
   51.6105  152.0665   25.8280 H   0  0  0  0  0  0  0  0  0  0  0  0
   53.1995  151.1049   25.4035 H   0  0  0  0  0  0  0  0  0  0  0  0
   52.0701  152.7464   28.9173 H   0  0  0  0  0  0  0  0  0  0  0  0
   51.0561  154.6328   30.1736 H   0  0  0  0  0  0  0  0  0  0  0  0
   53.4944  160.3281   30.2690 H   0  0  0  0  0  0  0  0  0  0  0  0
   52.8001  162.4105   31.4607 H   0  0  0  0  0  0  0  0  0  0  0  0
   50.4466  162.6741   32.2490 H   0  0  0  0  0  0  0  0  0  0  0  0
   48.2800  161.8130   32.1990 H   0  0  0  0  0  0  0  0  0  0  0  0
   48.0530  156.2720   30.0420 H   0  0  0  0  0  0  0  0  0  0  0  0
   52.4501  157.3850   27.1588 H   0  0  0  0  0  0  0  0  0  0  0  0
   54.6603  156.0624   25.7650 H   0  0  0  0  0  0  0  0  0  0  0  0
   53.8119  154.6983   24.9611 H   0  0  0  0  0  0  0  0  0  0  0  0
   53.0776  156.3377   24.9611 H   0  0  0  0  0  0  0  0  0  0  0  0
  1  2  2  0
  2  3  1  0
  2  4  1  0
  4  5  2  0
  5  6  1  0
  6  7  2  0
  7  8  1  0
  8  9  1  0
  9 10  1  0
 10 11  2  0
 11 12  1  0
 12 13  2  0
 13 14  1  0
 14 15  1  0
 14 16  2  0
 16 17  1  0
 17 18  2  0
 17 19  1  0
 19 20  1  0
  7 21  1  0
 21 22  2  0
 22 23  1  0
 22  4  1  0
 19  8  2  0
 16 10  1  0
  1 24  1  0
  1 25  1  0
  5 26  1  0
  6 27  1  0
 11 28  1  0
 12 29  1  0
 13 30  1  0
 15 31  1  0
 20 32  1  0
 21 33  1  0
 23 34  1  0
 23 35  1  0
 23 36  1  0
M  END
>  <meeko>  (5) 
{"is_sidechain": [false], "free_energy": -9.283, "intermolecular_energy": -10.866, "internal_energy": -0.352}

$$$$
