cand_055_out
     RDKit          3D

 41 43  0  0  0  0  0  0  0  0999 V2000
   48.7240  161.4960   33.7200 C   0  0  0  0  0  0  0  0  0  0  0  0
   50.0390  161.1350   33.0480 C   0  0  0  0  0  0  0  0  0  0  0  0
   49.9400  161.2570   31.5270 C   0  0  0  0  0  0  0  0  0  0  0  0
   50.4060  159.9980   30.8300 C   0  0  0  0  0  0  0  0  0  0  0  0
   51.7260  159.9510   30.3510 C   0  0  0  0  0  0  0  0  0  0  0  0
   52.2120  158.8190   29.6900 C   0  0  0  0  0  0  0  0  0  0  0  0
   51.3950  157.7020   29.4950 C   0  0  0  0  0  0  0  0  0  0  0  0
   51.8770  156.5010   28.7790 C   0  0  0  0  0  0  0  0  0  0  0  0
   52.4210  156.7970   27.5340 O   0  0  0  0  0  0  0  0  0  0  0  0
   52.9070  155.7740   26.7620 C   0  0  0  0  0  0  0  0  0  0  0  0
   53.4580  156.1180   25.5270 C   0  0  0  0  0  0  0  0  0  0  0  0
   53.9690  155.1230   24.6900 C   0  0  0  0  0  0  0  0  0  0  0  0
   53.9290  153.7850   25.0880 C   0  0  0  0  0  0  0  0  0  0  0  0
   53.3790  153.4450   26.3220 C   0  0  0  0  0  0  0  0  0  0  0  0
   53.3700  152.1160   26.6480 O   0  0  0  0  0  0  0  0  0  0  0  0
   52.8680  154.4410   27.1580 C   0  0  0  0  0  0  0  0  0  0  0  0
   52.2810  154.1260   28.4620 C   0  0  0  0  0  0  0  0  0  0  0  0
   52.2040  152.9720   28.8790 O   0  0  0  0  0  0  0  0  0  0  0  0
   51.7750  155.2550   29.2760 C   0  0  0  0  0  0  0  0  0  0  0  0
   51.2110  154.9440   30.5000 O   0  0  0  0  0  0  0  0  0  0  0  0
   50.0720  157.7550   29.9610 C   0  0  0  0  0  0  0  0  0  0  0  0
   49.5630  158.8890   30.6210 C   0  0  0  0  0  0  0  0  0  0  0  0
   48.1410  158.8680   31.1080 C   0  0  0  0  0  0  0  0  0  0  0  0
   48.8489  161.4617   34.8123 H   0  0  0  0  0  0  0  0  0  0  0  0
   48.4236  162.5099   33.4169 H   0  0  0  0  0  0  0  0  0  0  0  0
   47.9480  160.7777   33.4169 H   0  0  0  0  0  0  0  0  0  0  0  0
   50.8247  161.8138   33.4111 H   0  0  0  0  0  0  0  0  0  0  0  0
   50.2798  160.0909   33.2967 H   0  0  0  0  0  0  0  0  0  0  0  0
   48.8921  161.4485   31.2528 H   0  0  0  0  0  0  0  0  0  0  0  0
   50.5903  162.0847   31.2078 H   0  0  0  0  0  0  0  0  0  0  0  0
   52.3870  160.8179   30.4983 H   0  0  0  0  0  0  0  0  0  0  0  0
   53.2477  158.8074   29.3197 H   0  0  0  0  0  0  0  0  0  0  0  0
   53.4900  157.1717   25.2128 H   0  0  0  0  0  0  0  0  0  0  0  0
   54.4034  155.3938   23.7163 H   0  0  0  0  0  0  0  0  0  0  0  0
   54.3308  153.0014   24.4288 H   0  0  0  0  0  0  0  0  0  0  0  0
   53.0550  151.4850   26.0320 H   0  0  0  0  0  0  0  0  0  0  0  0
   51.2970  154.0780   30.8490 H   0  0  0  0  0  0  0  0  0  0  0  0
   49.4151  156.8864   29.8061 H   0  0  0  0  0  0  0  0  0  0  0  0
   48.1301  158.8678   32.2079 H   0  0  0  0  0  0  0  0  0  0  0  0
   47.6129  159.7584   30.7362 H   0  0  0  0  0  0  0  0  0  0  0  0
   47.6394  157.9623   30.7362 H   0  0  0  0  0  0  0  0  0  0  0  0
  1  2  1  0
  2  3  1  0
  3  4  1  0
  4  5  2  0
  5  6  1  0
  6  7  2  0
  7  8  1  0
  8  9  1  0
  9 10  1  0
 10 11  2  0
 11 12  1  0
 12 13  2  0
 13 14  1  0
 14 15  1  0
 14 16  2  0
 16 17  1  0
 17 18  2  0
 17 19  1  0
 19 20  1  0
  7 21  1  0
 21 22  2  0
 22 23  1  0
 22  4  1  0
 19  8  2  0
 16 10  1  0
  1 24  1  0
  1 25  1  0
  1 26  1  0
  2 27  1  0
  2 28  1  0
  3 29  1  0
  3 30  1  0
  5 31  1  0
  6 32  1  0
 11 33  1  0
 12 34  1  0
 13 35  1  0
 15 36  1  0
 20 37  1  0
 21 38  1  0
 23 39  1  0
 23 40  1  0
 23 41  1  0
M  END
>  <meeko>  (1) 
{"is_sidechain": [false], "free_energy": -10.845, "intermolecular_energy": -13.381, "internal_energy": -0.333}

$$$$
cand_055_out
     RDKit          3D

 41 43  0  0  0  0  0  0  0  0999 V2000
   46.9740  160.0120   31.1950 C   0  0  0  0  0  0  0  0  0  0  0  0
   48.2790  160.7230   30.8720 C   0  0  0  0  0  0  0  0  0  0  0  0
   49.4600  160.0790   31.5990 C   0  0  0  0  0  0  0  0  0  0  0  0
   50.1680  159.0610   30.7310 C   0  0  0  0  0  0  0  0  0  0  0  0
   49.5210  157.8410   30.4710 C   0  0  0  0  0  0  0  0  0  0  0  0
   50.1270  156.8590   29.6850 C   0  0  0  0  0  0  0  0  0  0  0  0
   51.3940  157.0690   29.1320 C   0  0  0  0  0  0  0  0  0  0  0  0
   52.0680  156.0360   28.3160 C   0  0  0  0  0  0  0  0  0  0  0  0
   52.6400  156.5510   27.1580 O   0  0  0  0  0  0  0  0  0  0  0  0
   53.2990  155.7000   26.3090 C   0  0  0  0  0  0  0  0  0  0  0  0
   53.8700  156.2630   25.1660 C   0  0  0  0  0  0  0  0  0  0  0  0
   54.5540  155.4520   24.2580 C   0  0  0  0  0  0  0  0  0  0  0  0
   54.6660  154.0790   24.4910 C   0  0  0  0  0  0  0  0  0  0  0  0
   54.0960  153.5210   25.6330 C   0  0  0  0  0  0  0  0  0  0  0  0
   54.2420  152.1710   25.7990 O   0  0  0  0  0  0  0  0  0  0  0  0
   53.4120  154.3340   26.5410 C   0  0  0  0  0  0  0  0  0  0  0  0
   52.7980  153.7870   27.7530 C   0  0  0  0  0  0  0  0  0  0  0  0
   52.8480  152.5890   28.0240 O   0  0  0  0  0  0  0  0  0  0  0  0
   52.1020  154.7340   28.6550 C   0  0  0  0  0  0  0  0  0  0  0  0
   51.5150  154.2040   29.7900 O   0  0  0  0  0  0  0  0  0  0  0  0
   52.0460  158.2810   29.4040 C   0  0  0  0  0  0  0  0  0  0  0  0
   51.4540  159.2790   30.2000 C   0  0  0  0  0  0  0  0  0  0  0  0
   52.2050  160.5610   30.4350 C   0  0  0  0  0  0  0  0  0  0  0  0
   46.8528  159.9460   32.2863 H   0  0  0  0  0  0  0  0  0  0  0  0
   46.1330  160.5766   30.7662 H   0  0  0  0  0  0  0  0  0  0  0  0
   46.9924  158.9992   30.7662 H   0  0  0  0  0  0  0  0  0  0  0  0
   48.4554  160.6720   29.7874 H   0  0  0  0  0  0  0  0  0  0  0  0
   48.1955  161.7680   31.2052 H   0  0  0  0  0  0  0  0  0  0  0  0
   50.1757  160.8652   31.8814 H   0  0  0  0  0  0  0  0  0  0  0  0
   49.0719  159.5594   32.4875 H   0  0  0  0  0  0  0  0  0  0  0  0
   48.5220  157.6569   30.8931 H   0  0  0  0  0  0  0  0  0  0  0  0
   49.6023  155.9103   29.4989 H   0  0  0  0  0  0  0  0  0  0  0  0
   53.7812  157.3437   24.9810 H   0  0  0  0  0  0  0  0  0  0  0  0
   55.0053  155.8949   23.3579 H   0  0  0  0  0  0  0  0  0  0  0  0
   55.2030  153.4402   23.7744 H   0  0  0  0  0  0  0  0  0  0  0  0
   53.9170  151.7570   26.5750 H   0  0  0  0  0  0  0  0  0  0  0  0
   50.7510  154.6060   30.1530 H   0  0  0  0  0  0  0  0  0  0  0  0
   53.0473  158.4560   28.9836 H   0  0  0  0  0  0  0  0  0  0  0  0
   52.3062  160.7337   31.5166 H   0  0  0  0  0  0  0  0  0  0  0  0
   53.2040  160.4894   29.9801 H   0  0  0  0  0  0  0  0  0  0  0  0
   51.6540  161.3974   29.9801 H   0  0  0  0  0  0  0  0  0  0  0  0
  1  2  1  0
  2  3  1  0
  3  4  1  0
  4  5  2  0
  5  6  1  0
  6  7  2  0
  7  8  1  0
  8  9  1  0
  9 10  1  0
 10 11  2  0
 11 12  1  0
 12 13  2  0
 13 14  1  0
 14 15  1  0
 14 16  2  0
 16 17  1  0
 17 18  2  0
 17 19  1  0
 19 20  1  0
  7 21  1  0
 21 22  2  0
 22 23  1  0
 22  4  1  0
 19  8  2  0
 16 10  1  0
  1 24  1  0
  1 25  1  0
  1 26  1  0
  2 27  1  0
  2 28  1  0
  3 29  1  0
  3 30  1  0
  5 31  1  0
  6 32  1  0
 11 33  1  0
 12 34  1  0
 13 35  1  0
 15 36  1  0
 20 37  1  0
 21 38  1  0
 23 39  1  0
 23 40  1  0
 23 41  1  0
M  END
>  <meeko>  (2) 
{"is_sidechain": [false], "free_energy": -10.097, "intermolecular_energy": -12.616, "internal_energy": -0.175}

$$$$
cand_055_out
     RDKit          3D

 41 43  0  0  0  0  0  0  0  0999 V2000
   54.3320  151.1170   24.8060 C   0  0  0  0  0  0  0  0  0  0  0  0
   54.1420  152.1190   25.9340 C   0  0  0  0  0  0  0  0  0  0  0  0
   52.6660  152.2580   26.3130 C   0  0  0  0  0  0  0  0  0  0  0  0
   52.3920  153.5570   27.0380 C   0  0  0  0  0  0  0  0  0  0  0  0
   51.9470  153.4980   28.3690 C   0  0  0  0  0  0  0  0  0  0  0  0
   51.6680  154.6630   29.0880 C   0  0  0  0  0  0  0  0  0  0  0  0
   51.8300  155.9190   28.4990 C   0  0  0  0  0  0  0  0  0  0  0  0
   51.5190  157.1680   29.2290 C   0  0  0  0  0  0  0  0  0  0  0  0
   50.2100  157.2080   29.6950 O   0  0  0  0  0  0  0  0  0  0  0  0
   49.7870  158.3120   30.3900 C   0  0  0  0  0  0  0  0  0  0  0  0
   48.4700  158.3040   30.8520 C   0  0  0  0  0  0  0  0  0  0  0  0
   47.9760  159.3970   31.5660 C   0  0  0  0  0  0  0  0  0  0  0  0
   48.7970  160.4980   31.8180 C   0  0  0  0  0  0  0  0  0  0  0  0
   50.1110  160.5030   31.3560 C   0  0  0  0  0  0  0  0  0  0  0  0
   50.8600  161.6130   31.6360 O   0  0  0  0  0  0  0  0  0  0  0  0
   50.6050  159.4080   30.6420 C   0  0  0  0  0  0  0  0  0  0  0  0
   51.9800  159.3740   30.1390 C   0  0  0  0  0  0  0  0  0  0  0  0
   52.7600  160.3070   30.3140 O   0  0  0  0  0  0  0  0  0  0  0  0
   52.4080  158.1630   29.4000 C   0  0  0  0  0  0  0  0  0  0  0  0
   53.7050  158.1470   28.9190 O   0  0  0  0  0  0  0  0  0  0  0  0
   52.2600  155.9790   27.1640 C   0  0  0  0  0  0  0  0  0  0  0  0
   52.5390  154.8160   26.4230 C   0  0  0  0  0  0  0  0  0  0  0  0
   53.0130  154.9560   25.0030 C   0  0  0  0  0  0  0  0  0  0  0  0
   54.5211  150.1196   25.2295 H   0  0  0  0  0  0  0  0  0  0  0  0
   53.4237  151.0860   24.1863 H   0  0  0  0  0  0  0  0  0  0  0  0
   55.1886  151.4206   24.1863 H   0  0  0  0  0  0  0  0  0  0  0  0
   54.7072  151.7788   26.8142 H   0  0  0  0  0  0  0  0  0  0  0  0
   54.5059  153.0991   25.5921 H   0  0  0  0  0  0  0  0  0  0  0  0
   52.0586  152.2268   25.3964 H   0  0  0  0  0  0  0  0  0  0  0  0
   52.4067  151.4287   26.9876 H   0  0  0  0  0  0  0  0  0  0  0  0
   51.8161  152.5189   28.8530 H   0  0  0  0  0  0  0  0  0  0  0  0
   51.3173  154.5903   30.1281 H   0  0  0  0  0  0  0  0  0  0  0  0
   47.8221  157.4374   30.6537 H   0  0  0  0  0  0  0  0  0  0  0  0
   46.9382  159.3910   31.9307 H   0  0  0  0  0  0  0  0  0  0  0  0
   48.4070  161.3594   32.3801 H   0  0  0  0  0  0  0  0  0  0  0  0
   50.5240  162.4660   31.4400 H   0  0  0  0  0  0  0  0  0  0  0  0
   54.0750  157.3490   28.5970 H   0  0  0  0  0  0  0  0  0  0  0  0
   52.3820  156.9614   26.6845 H   0  0  0  0  0  0  0  0  0  0  0  0
   54.0679  155.2676   24.9976 H   0  0  0  0  0  0  0  0  0  0  0  0
   52.9133  153.9901   24.4863 H   0  0  0  0  0  0  0  0  0  0  0  0
   52.4045  155.7128   24.4863 H   0  0  0  0  0  0  0  0  0  0  0  0
  1  2  1  0
  2  3  1  0
  3  4  1  0
  4  5  2  0
  5  6  1  0
  6  7  2  0
  7  8  1  0
  8  9  1  0
  9 10  1  0
 10 11  2  0
 11 12  1  0
 12 13  2  0
 13 14  1  0
 14 15  1  0
 14 16  2  0
 16 17  1  0
 17 18  2  0
 17 19  1  0
 19 20  1  0
  7 21  1  0
 21 22  2  0
 22 23  1  0
 22  4  1  0
 19  8  2  0
 16 10  1  0
  1 24  1  0
  1 25  1  0
  1 26  1  0
  2 27  1  0
  2 28  1  0
  3 29  1  0
  3 30  1  0
  5 31  1  0
  6 32  1  0
 11 33  1  0
 12 34  1  0
 13 35  1  0
 15 36  1  0
 20 37  1  0
 21 38  1  0
 23 39  1  0
 23 40  1  0
 23 41  1  0
M  END
>  <meeko>  (3) 
{"is_sidechain": [false], "free_energy": -9.973, "intermolecular_energy": -12.561, "internal_energy": -0.077}

$$$$
cand_055_out
     RDKit          3D

 41 43  0  0  0  0  0  0  0  0999 V2000
   53.3350  150.9680   25.5170 C   0  0  0  0  0  0  0  0  0  0  0  0
   52.6720  152.1080   26.2720 C   0  0  0  0  0  0  0  0  0  0  0  0
   53.6200  153.2990   26.4300 C   0  0  0  0  0  0  0  0  0  0  0  0
   52.9830  154.4250   27.2130 C   0  0  0  0  0  0  0  0  0  0  0  0
   52.2990  154.1090   28.3980 C   0  0  0  0  0  0  0  0  0  0  0  0
   51.6820  155.1050   29.1600 C   0  0  0  0  0  0  0  0  0  0  0  0
   51.7360  156.4430   28.7620 C   0  0  0  0  0  0  0  0  0  0  0  0
   51.0710  157.5130   29.5370 C   0  0  0  0  0  0  0  0  0  0  0  0
   51.9200  158.5750   29.8300 O   0  0  0  0  0  0  0  0  0  0  0  0
   51.4310  159.6370   30.5440 C   0  0  0  0  0  0  0  0  0  0  0  0
   52.3140  160.6870   30.8030 C   0  0  0  0  0  0  0  0  0  0  0  0
   51.8810  161.8000   31.5280 C   0  0  0  0  0  0  0  0  0  0  0  0
   50.5660  161.8620   31.9950 C   0  0  0  0  0  0  0  0  0  0  0  0
   49.6870  160.8130   31.7350 C   0  0  0  0  0  0  0  0  0  0  0  0
   48.4150  160.9380   32.2220 O   0  0  0  0  0  0  0  0  0  0  0  0
   50.1210  159.7010   31.0090 C   0  0  0  0  0  0  0  0  0  0  0  0
   49.2300  158.5770   30.7150 C   0  0  0  0  0  0  0  0  0  0  0  0
   48.0620  158.5560   31.0970 O   0  0  0  0  0  0  0  0  0  0  0  0
   49.7860  157.4490   29.9310 C   0  0  0  0  0  0  0  0  0  0  0  0
   48.9380  156.3880   29.6700 O   0  0  0  0  0  0  0  0  0  0  0  0
   52.4060  156.7570   27.5700 C   0  0  0  0  0  0  0  0  0  0  0  0
   53.0270  155.7660   26.7860 C   0  0  0  0  0  0  0  0  0  0  0  0
   53.7430  156.1780   25.5290 C   0  0  0  0  0  0  0  0  0  0  0  0
   53.7540  150.2475   26.2349 H   0  0  0  0  0  0  0  0  0  0  0  0
   52.5891  150.4641   24.8848 H   0  0  0  0  0  0  0  0  0  0  0  0
   54.1418  151.3672   24.8848 H   0  0  0  0  0  0  0  0  0  0  0  0
   51.7788  152.4325   25.7180 H   0  0  0  0  0  0  0  0  0  0  0  0
   52.3996  151.7470   27.2747 H   0  0  0  0  0  0  0  0  0  0  0  0
   54.5252  152.9656   26.9586 H   0  0  0  0  0  0  0  0  0  0  0  0
   53.8642  153.6766   25.4261 H   0  0  0  0  0  0  0  0  0  0  0  0
   52.2481  153.0620   28.7315 H   0  0  0  0  0  0  0  0  0  0  0  0
   51.1484  154.8326   30.0825 H   0  0  0  0  0  0  0  0  0  0  0  0
   53.3500  160.6380   30.4365 H   0  0  0  0  0  0  0  0  0  0  0  0
   52.5761  162.6280   31.7312 H   0  0  0  0  0  0  0  0  0  0  0  0
   50.2251  162.7376   32.5670 H   0  0  0  0  0  0  0  0  0  0  0  0
   47.9970  160.2070   32.6330 H   0  0  0  0  0  0  0  0  0  0  0  0
   48.0100  156.5060   29.7260 H   0  0  0  0  0  0  0  0  0  0  0  0
   52.4472  157.8053   27.2392 H   0  0  0  0  0  0  0  0  0  0  0  0
   54.6687  156.7107   25.7921 H   0  0  0  0  0  0  0  0  0  0  0  0
   53.9899  155.2838   24.9378 H   0  0  0  0  0  0  0  0  0  0  0  0
   53.0940  156.8408   24.9378 H   0  0  0  0  0  0  0  0  0  0  0  0
  1  2  1  0
  2  3  1  0
  3  4  1  0
  4  5  2  0
  5  6  1  0
  6  7  2  0
  7  8  1  0
  8  9  1  0
  9 10  1  0
 10 11  2  0
 11 12  1  0
 12 13  2  0
 13 14  1  0
 14 15  1  0
 14 16  2  0
 16 17  1  0
 17 18  2  0
 17 19  1  0
 19 20  1  0
  7 21  1  0
 21 22  2  0
 22 23  1  0
 22  4  1  0
 19  8  2  0
 16 10  1  0
  1 24  1  0
  1 25  1  0
  1 26  1  0
  2 27  1  0
  2 28  1  0
  3 29  1  0
  3 30  1  0
  5 31  1  0
  6 32  1  0
 11 33  1  0
 12 34  1  0
 13 35  1  0
 15 36  1  0
 20 37  1  0
 21 38  1  0
 23 39  1  0
 23 40  1  0
 23 41  1  0
M  END
>  <meeko>  (4) 
{"is_sidechain": [false], "free_energy": -9.055, "intermolecular_energy": -11.211, "internal_energy": -0.294}

$$$$
cand_055_out
     RDKit          3D

 41 43  0  0  0  0  0  0  0  0999 V2000
   48.0160  160.5140   31.0830 C   0  0  0  0  0  0  0  0  0  0  0  0
   48.1410  159.1200   30.4900 C   0  0  0  0  0  0  0  0  0  0  0  0
   49.2650  158.3270   31.1600 C   0  0  0  0  0  0  0  0  0  0  0  0
   50.0620  157.5230   30.1570 C   0  0  0  0  0  0  0  0  0  0  0  0
   49.5620  156.2730   29.7560 C   0  0  0  0  0  0  0  0  0  0  0  0
   50.2570  155.4800   28.8400 C   0  0  0  0  0  0  0  0  0  0  0  0
   51.4680  155.9150   28.2960 C   0  0  0  0  0  0  0  0  0  0  0  0
   52.2370  155.0850   27.3430 C   0  0  0  0  0  0  0  0  0  0  0  0
   51.9310  153.7320   27.4370 O   0  0  0  0  0  0  0  0  0  0  0  0
   52.5730  152.8480   26.6080 C   0  0  0  0  0  0  0  0  0  0  0  0
   52.2250  151.5010   26.7270 C   0  0  0  0  0  0  0  0  0  0  0  0
   52.8420  150.5480   25.9140 C   0  0  0  0  0  0  0  0  0  0  0  0
   53.8070  150.9400   24.9840 C   0  0  0  0  0  0  0  0  0  0  0  0
   54.1520  152.2850   24.8680 C   0  0  0  0  0  0  0  0  0  0  0  0
   55.1050  152.5990   23.9390 O   0  0  0  0  0  0  0  0  0  0  0  0
   53.5330  153.2380   25.6810 C   0  0  0  0  0  0  0  0  0  0  0  0
   53.8680  154.6610   25.5910 C   0  0  0  0  0  0  0  0  0  0  0  0
   54.7110  155.0820   24.8030 O   0  0  0  0  0  0  0  0  0  0  0  0
   53.1490  155.5910   26.4930 C   0  0  0  0  0  0  0  0  0  0  0  0
   53.4830  156.9310   26.4080 O   0  0  0  0  0  0  0  0  0  0  0  0
   51.9760  157.1570   28.7070 C   0  0  0  0  0  0  0  0  0  0  0  0
   51.2920  157.9660   29.6350 C   0  0  0  0  0  0  0  0  0  0  0  0
   51.8870  159.2930   30.0170 C   0  0  0  0  0  0  0  0  0  0  0  0
   48.0220  160.4473   32.1810 H   0  0  0  0  0  0  0  0  0  0  0  0
   48.8623  161.1320   30.7486 H   0  0  0  0  0  0  0  0  0  0  0  0
   47.0732  160.9715   30.7486 H   0  0  0  0  0  0  0  0  0  0  0  0
   47.1910  158.5841   30.6322 H   0  0  0  0  0  0  0  0  0  0  0  0
   48.3771  159.2188   29.4202 H   0  0  0  0  0  0  0  0  0  0  0  0
   49.9405  159.0292   31.6704 H   0  0  0  0  0  0  0  0  0  0  0  0
   48.8091  157.6258   31.8745 H   0  0  0  0  0  0  0  0  0  0  0  0
   48.6084  155.9131   30.1698 H   0  0  0  0  0  0  0  0  0  0  0  0
   49.8467  154.5032   28.5440 H   0  0  0  0  0  0  0  0  0  0  0  0
   51.4658  151.1910   27.4602 H   0  0  0  0  0  0  0  0  0  0  0  0
   52.5674  149.4868   26.0063 H   0  0  0  0  0  0  0  0  0  0  0  0
   54.2936  150.1888   24.3445 H   0  0  0  0  0  0  0  0  0  0  0  0
   55.9390  152.1710   23.9590 H   0  0  0  0  0  0  0  0  0  0  0  0
   53.2320  157.4290   25.6550 H   0  0  0  0  0  0  0  0  0  0  0  0
   52.9332  157.5077   28.2937 H   0  0  0  0  0  0  0  0  0  0  0  0
   51.9243  159.3762   31.1132 H   0  0  0  0  0  0  0  0  0  0  0  0
   52.9055  159.3693   29.6086 H   0  0  0  0  0  0  0  0  0  0  0  0
   51.2665  160.1043   29.6086 H   0  0  0  0  0  0  0  0  0  0  0  0
  1  2  1  0
  2  3  1  0
  3  4  1  0
  4  5  2  0
  5  6  1  0
  6  7  2  0
  7  8  1  0
  8  9  1  0
  9 10  1  0
 10 11  2  0
 11 12  1  0
 12 13  2  0
 13 14  1  0
 14 15  1  0
 14 16  2  0
 16 17  1  0
 17 18  2  0
 17 19  1  0
 19 20  1  0
  7 21  1  0
 21 22  2  0
 22 23  1  0
 22  4  1  0
 19  8  2  0
 16 10  1  0
  1 24  1  0
  1 25  1  0
  1 26  1  0
  2 27  1  0
  2 28  1  0
  3 29  1  0
  3 30  1  0
  5 31  1  0
  6 32  1  0
 11 33  1  0
 12 34  1  0
 13 35  1  0
 15 36  1  0
 20 37  1  0
 21 38  1  0
 23 39  1  0
 23 40  1  0
 23 41  1  0
M  END
>  <meeko>  (5) 
{"is_sidechain": [false], "free_energy": -8.898, "intermolecular_energy": -11.294, "internal_energy": -0.017}

$$$$
cand_055_out
     RDKit          3D

 41 43  0  0  0  0  0  0  0  0999 V2000
   54.1790  153.0030   23.6250 C   0  0  0  0  0  0  0  0  0  0  0  0
   53.5370  154.0440   24.5280 C   0  0  0  0  0  0  0  0  0  0  0  0
   53.7040  153.6820   26.0040 C   0  0  0  0  0  0  0  0  0  0  0  0
   53.0170  154.6800   26.9100 C   0  0  0  0  0  0  0  0  0  0  0  0
   53.2230  156.0490   26.6700 C   0  0  0  0  0  0  0  0  0  0  0  0
   52.6240  157.0190   27.4780 C   0  0  0  0  0  0  0  0  0  0  0  0
   51.7990  156.6490   28.5430 C   0  0  0  0  0  0  0  0  0  0  0  0
   51.1720  157.6550   29.4280 C   0  0  0  0  0  0  0  0  0  0  0  0
   52.0130  158.7270   29.7080 O   0  0  0  0  0  0  0  0  0  0  0  0
   51.5570  159.7340   30.5190 C   0  0  0  0  0  0  0  0  0  0  0  0
   52.4280  160.7970   30.7610 C   0  0  0  0  0  0  0  0  0  0  0  0
   52.0260  161.8540   31.5800 C   0  0  0  0  0  0  0  0  0  0  0  0
   50.7550  161.8490   32.1560 C   0  0  0  0  0  0  0  0  0  0  0  0
   49.8870  160.7880   31.9120 C   0  0  0  0  0  0  0  0  0  0  0  0
   48.6570  160.8450   32.5090 O   0  0  0  0  0  0  0  0  0  0  0  0
   50.2890  159.7300   31.0920 C   0  0  0  0  0  0  0  0  0  0  0  0
   49.4080  158.5950   30.8110 C   0  0  0  0  0  0  0  0  0  0  0  0
   48.2780  158.5150   31.2870 O   0  0  0  0  0  0  0  0  0  0  0  0
   49.9280  157.5280   29.9240 C   0  0  0  0  0  0  0  0  0  0  0  0
   49.0910  156.4550   29.6750 O   0  0  0  0  0  0  0  0  0  0  0  0
   51.6060  155.2820   28.7920 C   0  0  0  0  0  0  0  0  0  0  0  0
   52.2070  154.2910   27.9940 C   0  0  0  0  0  0  0  0  0  0  0  0
   51.9410  152.8450   28.3090 C   0  0  0  0  0  0  0  0  0  0  0  0
   54.6572  152.2276   24.2415 H   0  0  0  0  0  0  0  0  0  0  0  0
   53.4077  152.5426   22.9900 H   0  0  0  0  0  0  0  0  0  0  0  0
   54.9366  153.4855   22.9900 H   0  0  0  0  0  0  0  0  0  0  0  0
   54.0109  155.0193   24.3430 H   0  0  0  0  0  0  0  0  0  0  0  0
   52.4614  154.0830   24.3009 H   0  0  0  0  0  0  0  0  0  0  0  0
   53.2698  152.6863   26.1775 H   0  0  0  0  0  0  0  0  0  0  0  0
   54.7787  153.6918   26.2383 H   0  0  0  0  0  0  0  0  0  0  0  0
   53.8654  156.3618   25.8336 H   0  0  0  0  0  0  0  0  0  0  0  0
   52.8039  158.0847   27.2734 H   0  0  0  0  0  0  0  0  0  0  0  0
   53.4300  160.8022   30.3072 H   0  0  0  0  0  0  0  0  0  0  0  0
   52.7123  162.6920   31.7715 H   0  0  0  0  0  0  0  0  0  0  0  0
   50.4394  162.6818   32.8017 H   0  0  0  0  0  0  0  0  0  0  0  0
   47.9070  160.4930   32.0720 H   0  0  0  0  0  0  0  0  0  0  0  0
   49.3230  155.8220   29.0250 H   0  0  0  0  0  0  0  0  0  0  0  0
   50.9675  154.9765   29.6340 H   0  0  0  0  0  0  0  0  0  0  0  0
   51.9154  152.7061   29.3999 H   0  0  0  0  0  0  0  0  0  0  0  0
   50.9732  152.5480   27.8788 H   0  0  0  0  0  0  0  0  0  0  0  0
   52.7398  152.2231   27.8788 H   0  0  0  0  0  0  0  0  0  0  0  0
  1  2  1  0
  2  3  1  0
  3  4  1  0
  4  5  2  0
  5  6  1  0
  6  7  2  0
  7  8  1  0
  8  9  1  0
  9 10  1  0
 10 11  2  0
 11 12  1  0
 12 13  2  0
 13 14  1  0
 14 15  1  0
 14 16  2  0
 16 17  1  0
 17 18  2  0
 17 19  1  0
 19 20  1  0
  7 21  1  0
 21 22  2  0
 22 23  1  0
 22  4  1  0
 19  8  2  0
 16 10  1  0
  1 24  1  0
  1 25  1  0
  1 26  1  0
  2 27  1  0
  2 28  1  0
  3 29  1  0
  3 30  1  0
  5 31  1  0
  6 32  1  0
 11 33  1  0
 12 34  1  0
 13 35  1  0
 15 36  1  0
 20 37  1  0
 21 38  1  0
 23 39  1  0
 23 40  1  0
 23 41  1  0
M  END
>  <meeko>  (6) 
{"is_sidechain": [false], "free_energy": -8.705, "intermolecular_energy": -10.943, "internal_energy": -0.13}

$$$$
cand_055_out
     RDKit          3D

 41 43  0  0  0  0  0  0  0  0999 V2000
   48.8070  161.0060   30.8980 C   0  0  0  0  0  0  0  0  0  0  0  0
   49.9500  160.3940   30.1040 C   0  0  0  0  0  0  0  0  0  0  0  0
   50.5760  159.2130   30.8480 C   0  0  0  0  0  0  0  0  0  0  0  0
   51.0950  158.1600   29.8950 C   0  0  0  0  0  0  0  0  0  0  0  0
   52.3530  158.3580   29.3030 C   0  0  0  0  0  0  0  0  0  0  0  0
   52.8830  157.4260   28.4070 C   0  0  0  0  0  0  0  0  0  0  0  0
   52.1720  156.2680   28.0810 C   0  0  0  0  0  0  0  0  0  0  0  0
   52.6980  155.2770   27.1180 C   0  0  0  0  0  0  0  0  0  0  0  0
   52.3010  153.9760   27.4090 O   0  0  0  0  0  0  0  0  0  0  0  0
   52.7190  152.9570   26.5940 C   0  0  0  0  0  0  0  0  0  0  0  0
   52.2850  151.6690   26.9160 C   0  0  0  0  0  0  0  0  0  0  0  0
   52.6760  150.5850   26.1280 C   0  0  0  0  0  0  0  0  0  0  0  0
   53.5010  150.7870   25.0190 C   0  0  0  0  0  0  0  0  0  0  0  0
   53.9310  152.0720   24.7000 C   0  0  0  0  0  0  0  0  0  0  0  0
   54.7380  152.1980   23.6030 O   0  0  0  0  0  0  0  0  0  0  0  0
   53.5400  153.1570   25.4890 C   0  0  0  0  0  0  0  0  0  0  0  0
   53.9710  154.5230   25.1890 C   0  0  0  0  0  0  0  0  0  0  0  0
   54.7020  154.7800   24.2350 O   0  0  0  0  0  0  0  0  0  0  0  0
   53.4940  155.6040   26.0830 C   0  0  0  0  0  0  0  0  0  0  0  0
   53.9180  156.8890   25.7970 O   0  0  0  0  0  0  0  0  0  0  0  0
   50.9080  156.0760   28.6600 C   0  0  0  0  0  0  0  0  0  0  0  0
   50.3560  157.0090   29.5590 C   0  0  0  0  0  0  0  0  0  0  0  0
   49.0040  156.7290   30.1550 C   0  0  0  0  0  0  0  0  0  0  0  0
   49.0088  160.8979   31.9739 H   0  0  0  0  0  0  0  0  0  0  0  0
   48.7165  162.0732   30.6473 H   0  0  0  0  0  0  0  0  0  0  0  0
   47.8686  160.4896   30.6473 H   0  0  0  0  0  0  0  0  0  0  0  0
   49.5653  160.0434   29.1350 H   0  0  0  0  0  0  0  0  0  0  0  0
   50.7235  161.1630   29.9614 H   0  0  0  0  0  0  0  0  0  0  0  0
   51.4117  159.5812   31.4612 H   0  0  0  0  0  0  0  0  0  0  0  0
   49.7981  158.7529   31.4750 H   0  0  0  0  0  0  0  0  0  0  0  0
   52.9305  159.2614   29.5487 H   0  0  0  0  0  0  0  0  0  0  0  0
   53.8692  157.6055   27.9540 H   0  0  0  0  0  0  0  0  0  0  0  0
   51.6359  151.5090   27.7895 H   0  0  0  0  0  0  0  0  0  0  0  0
   52.3340  149.5705   26.3807 H   0  0  0  0  0  0  0  0  0  0  0  0
   53.8102  149.9325   24.3991 H   0  0  0  0  0  0  0  0  0  0  0  0
   54.4160  151.9620   22.7550 H   0  0  0  0  0  0  0  0  0  0  0  0
   54.7560  157.1830   26.0960 H   0  0  0  0  0  0  0  0  0  0  0  0
   50.3335  155.1733   28.4050 H   0  0  0  0  0  0  0  0  0  0  0  0
   49.0768  156.7441   31.2525 H   0  0  0  0  0  0  0  0  0  0  0  0
   48.2910  157.4985   29.8242 H   0  0  0  0  0  0  0  0  0  0  0  0
   48.6553  155.7396   29.8242 H   0  0  0  0  0  0  0  0  0  0  0  0
  1  2  1  0
  2  3  1  0
  3  4  1  0
  4  5  2  0
  5  6  1  0
  6  7  2  0
  7  8  1  0
  8  9  1  0
  9 10  1  0
 10 11  2  0
 11 12  1  0
 12 13  2  0
 13 14  1  0
 14 15  1  0
 14 16  2  0
 16 17  1  0
 17 18  2  0
 17 19  1  0
 19 20  1  0
  7 21  1  0
 21 22  2  0
 22 23  1  0
 22  4  1  0
 19  8  2  0
 16 10  1  0
  1 24  1  0
  1 25  1  0
  1 26  1  0
  2 27  1  0
  2 28  1  0
  3 29  1  0
  3 30  1  0
  5 31  1  0
  6 32  1  0
 11 33  1  0
 12 34  1  0
 13 35  1  0
 15 36  1  0
 20 37  1  0
 21 38  1  0
 23 39  1  0
 23 40  1  0
 23 41  1  0
M  END
>  <meeko>  (7) 
{"is_sidechain": [false], "free_energy": -8.352, "intermolecular_energy": -10.504, "internal_energy": -0.135}

$$$$
