cand_002_out
     RDKit          3D

 45 48  0  0  0  0  0  0  0  0999 V2000
   53.9820  156.6240   24.8160 C   0  0  0  0  0  0  0  0  0  0  0  0
   53.4010  156.0120   26.0610 C   0  0  0  0  0  0  0  0  0  0  0  0
   52.7160  156.8480   26.9640 C   0  0  0  0  0  0  0  0  0  0  0  0
   52.1600  156.3540   28.1540 C   0  0  0  0  0  0  0  0  0  0  0  0
   51.4680  157.2740   29.0820 C   0  0  0  0  0  0  0  0  0  0  0  0
   52.2070  158.4180   29.3590 O   0  0  0  0  0  0  0  0  0  0  0  0
   51.6820  159.3590   30.2070 C   0  0  0  0  0  0  0  0  0  0  0  0
   52.4640  160.4850   30.4670 C   0  0  0  0  0  0  0  0  0  0  0  0
   51.9880  161.4820   31.3210 C   0  0  0  0  0  0  0  0  0  0  0  0
   50.7310  161.3530   31.9140 C   0  0  0  0  0  0  0  0  0  0  0  0
   49.9520  160.2290   31.6520 C   0  0  0  0  0  0  0  0  0  0  0  0
   48.7300  160.1670   32.2660 O   0  0  0  0  0  0  0  0  0  0  0  0
   50.4300  159.2310   30.7990 C   0  0  0  0  0  0  0  0  0  0  0  0
   49.6440  158.0340   30.4970 C   0  0  0  0  0  0  0  0  0  0  0  0
   48.5260  157.8520   30.9750 O   0  0  0  0  0  0  0  0  0  0  0  0
   50.2430  157.0320   29.5860 C   0  0  0  0  0  0  0  0  0  0  0  0
   49.4860  155.9120   29.2970 O   0  0  0  0  0  0  0  0  0  0  0  0
   52.3190  154.9970   28.4460 C   0  0  0  0  0  0  0  0  0  0  0  0
   53.0060  154.1550   27.5690 C   0  0  0  0  0  0  0  0  0  0  0  0
   53.5580  154.6460   26.3720 C   0  0  0  0  0  0  0  0  0  0  0  0
   54.3020  153.6800   25.4680 C   0  0  0  0  0  0  0  0  0  0  0  0
   53.8270  152.2440   25.5260 C   0  0  0  0  0  0  0  0  0  0  0  0
   54.4900  151.2530   24.7860 C   0  0  0  0  0  0  0  0  0  0  0  0
   54.0470  149.9300   24.8110 C   0  0  0  0  0  0  0  0  0  0  0  0
   52.9300  149.5810   25.5680 C   0  0  0  0  0  0  0  0  0  0  0  0
   52.2530  150.5580   26.2970 C   0  0  0  0  0  0  0  0  0  0  0  0
   52.6960  151.8820   26.2730 C   0  0  0  0  0  0  0  0  0  0  0  0
   54.7147  157.3958   25.0944 H   0  0  0  0  0  0  0  0  0  0  0  0
   54.4795  155.8435   24.2215 H   0  0  0  0  0  0  0  0  0  0  0  0
   53.1767  157.0803   24.2215 H   0  0  0  0  0  0  0  0  0  0  0  0
   52.6140  157.9180   26.7300 H   0  0  0  0  0  0  0  0  0  0  0  0
   53.4545  160.5872   29.9997 H   0  0  0  0  0  0  0  0  0  0  0  0
   52.6041  162.3698   31.5266 H   0  0  0  0  0  0  0  0  0  0  0  0
   50.3564  162.1381   32.5873 H   0  0  0  0  0  0  0  0  0  0  0  0
   48.5120  160.7830   32.9370 H   0  0  0  0  0  0  0  0  0  0  0  0
   49.6110  155.1230   29.7880 H   0  0  0  0  0  0  0  0  0  0  0  0
   51.8986  154.5876   29.3764 H   0  0  0  0  0  0  0  0  0  0  0  0
   53.1174  153.0895   27.8185 H   0  0  0  0  0  0  0  0  0  0  0  0
   54.1935  154.0323   24.4316 H   0  0  0  0  0  0  0  0  0  0  0  0
   55.3429  153.6708   25.8235 H   0  0  0  0  0  0  0  0  0  0  0  0
   55.3678  151.5218   24.1801 H   0  0  0  0  0  0  0  0  0  0  0  0
   54.5802  149.1613   24.2323 H   0  0  0  0  0  0  0  0  0  0  0  0
   52.5833  148.5373   25.5903 H   0  0  0  0  0  0  0  0  0  0  0  0
   51.3688  150.2854   26.8918 H   0  0  0  0  0  0  0  0  0  0  0  0
   52.1530  152.6485   26.8453 H   0  0  0  0  0  0  0  0  0  0  0  0
  1  2  1  0
  2  3  2  0
  3  4  1  0
  4  5  1  0
  5  6  1  0
  6  7  1  0
  7  8  2  0
  8  9  1  0
  9 10  2  0
 10 11  1  0
 11 12  1  0
 11 13  2  0
 13 14  1  0
 14 15  2  0
 14 16  1  0
 16 17  1  0
  4 18  2  0
 18 19  1  0
 19 20  2  0
 20 21  1  0
 21 22  1  0
 22 23  2  0
 23 24  1  0
 24 25  2  0
 25 26  1  0
 26 27  2  0
 20  2  1  0
 27 22  1  0
 16  5  2  0
 13  7  1  0
  1 28  1  0
  1 29  1  0
  1 30  1  0
  3 31  1  0
  8 32  1  0
  9 33  1  0
 10 34  1  0
 12 35  1  0
 17 36  1  0
 18 37  1  0
 19 38  1  0
 21 39  1  0
 21 40  1  0
 23 41  1  0
 24 42  1  0
 25 43  1  0
 26 44  1  0
 27 45  1  0
M  END
>  <meeko>  (1) 
{"is_sidechain": [false], "free_energy": -10.249, "intermolecular_energy": -12.645, "internal_energy": 0.354}

$$$$
cand_002_out
     RDKit          3D

 45 48  0  0  0  0  0  0  0  0999 V2000
   51.5150  153.1720   29.5650 C   0  0  0  0  0  0  0  0  0  0  0  0
   51.8120  154.4990   28.9230 C   0  0  0  0  0  0  0  0  0  0  0  0
   51.4310  155.6740   29.6000 C   0  0  0  0  0  0  0  0  0  0  0  0
   51.6600  156.9480   29.0580 C   0  0  0  0  0  0  0  0  0  0  0  0
   51.2210  158.1520   29.7960 C   0  0  0  0  0  0  0  0  0  0  0  0
   49.8940  158.0820   30.2030 O   0  0  0  0  0  0  0  0  0  0  0  0
   49.3570  159.1340   30.8990 C   0  0  0  0  0  0  0  0  0  0  0  0
   48.0170  159.0280   31.2750 C   0  0  0  0  0  0  0  0  0  0  0  0
   47.4090  160.0630   31.9870 C   0  0  0  0  0  0  0  0  0  0  0  0
   48.1400  161.2040   32.3240 C   0  0  0  0  0  0  0  0  0  0  0  0
   49.4760  161.3080   31.9470 C   0  0  0  0  0  0  0  0  0  0  0  0
   50.1330  162.4530   32.3100 O   0  0  0  0  0  0  0  0  0  0  0  0
   50.0840  160.2720   31.2340 C   0  0  0  0  0  0  0  0  0  0  0  0
   51.4860  160.3410   30.8190 C   0  0  0  0  0  0  0  0  0  0  0  0
   52.1960  161.3090   31.0830 O   0  0  0  0  0  0  0  0  0  0  0  0
   52.0330  159.1930   30.0600 C   0  0  0  0  0  0  0  0  0  0  0  0
   53.3630  159.2620   29.6850 O   0  0  0  0  0  0  0  0  0  0  0  0
   52.2660  157.0340   27.8020 C   0  0  0  0  0  0  0  0  0  0  0  0
   52.6400  155.8800   27.1110 C   0  0  0  0  0  0  0  0  0  0  0  0
   52.4180  154.6020   27.6550 C   0  0  0  0  0  0  0  0  0  0  0  0
   52.8390  153.3880   26.8460 C   0  0  0  0  0  0  0  0  0  0  0  0
   53.5940  153.6920   25.5690 C   0  0  0  0  0  0  0  0  0  0  0  0
   53.7650  152.6940   24.5990 C   0  0  0  0  0  0  0  0  0  0  0  0
   54.4800  152.9530   23.4290 C   0  0  0  0  0  0  0  0  0  0  0  0
   55.0410  154.2110   23.2170 C   0  0  0  0  0  0  0  0  0  0  0  0
   54.8900  155.2080   24.1780 C   0  0  0  0  0  0  0  0  0  0  0  0
   54.1750  154.9500   25.3500 C   0  0  0  0  0  0  0  0  0  0  0  0
   51.5393  153.2805   30.6594 H   0  0  0  0  0  0  0  0  0  0  0  0
   50.5178  152.8286   29.2526 H   0  0  0  0  0  0  0  0  0  0  0  0
   52.2707  152.4362   29.2526 H   0  0  0  0  0  0  0  0  0  0  0  0
   50.9403  155.5906   30.5809 H   0  0  0  0  0  0  0  0  0  0  0  0
   47.4405  158.1293   31.0103 H   0  0  0  0  0  0  0  0  0  0  0  0
   46.3528  159.9798   32.2830 H   0  0  0  0  0  0  0  0  0  0  0  0
   47.6611  162.0191   32.8863 H   0  0  0  0  0  0  0  0  0  0  0  0
   50.7700  162.8290   31.7350 H   0  0  0  0  0  0  0  0  0  0  0  0
   53.8930  159.9800   29.9710 H   0  0  0  0  0  0  0  0  0  0  0  0
   52.4503  158.0211   27.3530 H   0  0  0  0  0  0  0  0  0  0  0  0
   53.1166  155.9718   26.1239 H   0  0  0  0  0  0  0  0  0  0  0  0
   53.4836  152.7630   27.4814 H   0  0  0  0  0  0  0  0  0  0  0  0
   51.9080  152.8897   26.5379 H   0  0  0  0  0  0  0  0  0  0  0  0
   53.3310  151.6965   24.7621 H   0  0  0  0  0  0  0  0  0  0  0  0
   54.6010  152.1632   22.6730 H   0  0  0  0  0  0  0  0  0  0  0  0
   55.6016  154.4161   22.2931 H   0  0  0  0  0  0  0  0  0  0  0  0
   55.3347  156.2006   24.0137 H   0  0  0  0  0  0  0  0  0  0  0  0
   54.0666  155.7400   26.1077 H   0  0  0  0  0  0  0  0  0  0  0  0
  1  2  1  0
  2  3  2  0
  3  4  1  0
  4  5  1  0
  5  6  1  0
  6  7  1  0
  7  8  2  0
  8  9  1  0
  9 10  2  0
 10 11  1  0
 11 12  1  0
 11 13  2  0
 13 14  1  0
 14 15  2  0
 14 16  1  0
 16 17  1  0
  4 18  2  0
 18 19  1  0
 19 20  2  0
 20 21  1  0
 21 22  1  0
 22 23  2  0
 23 24  1  0
 24 25  2  0
 25 26  1  0
 26 27  2  0
 20  2  1  0
 27 22  1  0
 16  5  2  0
 13  7  1  0
  1 28  1  0
  1 29  1  0
  1 30  1  0
  3 31  1  0
  8 32  1  0
  9 33  1  0
 10 34  1  0
 12 35  1  0
 17 36  1  0
 18 37  1  0
 19 38  1  0
 21 39  1  0
 21 40  1  0
 23 41  1  0
 24 42  1  0
 25 43  1  0
 26 44  1  0
 27 45  1  0
M  END
>  <meeko>  (2) 
{"is_sidechain": [false], "free_energy": -10.208, "intermolecular_energy": -12.837, "internal_energy": 0.596}

$$$$
cand_002_out
     RDKit          3D

 45 48  0  0  0  0  0  0  0  0999 V2000
   49.5320  157.7030   30.6020 C   0  0  0  0  0  0  0  0  0  0  0  0
   50.8020  157.5960   29.8040 C   0  0  0  0  0  0  0  0  0  0  0  0
   51.0540  156.4050   29.0970 C   0  0  0  0  0  0  0  0  0  0  0  0
   52.2230  156.2250   28.3430 C   0  0  0  0  0  0  0  0  0  0  0  0
   52.4540  154.9470   27.6340 C   0  0  0  0  0  0  0  0  0  0  0  0
   53.1730  155.1050   26.4560 O   0  0  0  0  0  0  0  0  0  0  0  0
   53.4580  153.9980   25.6980 C   0  0  0  0  0  0  0  0  0  0  0  0
   54.1690  154.2050   24.5160 C   0  0  0  0  0  0  0  0  0  0  0  0
   54.4930  153.1200   23.6980 C   0  0  0  0  0  0  0  0  0  0  0  0
   54.1060  151.8290   24.0640 C   0  0  0  0  0  0  0  0  0  0  0  0
   53.3960  151.6260   25.2440 C   0  0  0  0  0  0  0  0  0  0  0  0
   53.0490  150.3350   25.5410 O   0  0  0  0  0  0  0  0  0  0  0  0
   53.0710  152.7120   26.0600 C   0  0  0  0  0  0  0  0  0  0  0  0
   52.3270  152.5410   27.3090 C   0  0  0  0  0  0  0  0  0  0  0  0
   51.9570  151.4360   27.7010 O   0  0  0  0  0  0  0  0  0  0  0  0
   52.0260  153.7580   28.0990 C   0  0  0  0  0  0  0  0  0  0  0  0
   51.3340  153.5840   29.2830 O   0  0  0  0  0  0  0  0  0  0  0  0
   53.1640  157.2580   28.3210 C   0  0  0  0  0  0  0  0  0  0  0  0
   52.9370  158.4420   29.0260 C   0  0  0  0  0  0  0  0  0  0  0  0
   51.7630  158.6280   29.7770 C   0  0  0  0  0  0  0  0  0  0  0  0
   51.5840  159.9350   30.5290 C   0  0  0  0  0  0  0  0  0  0  0  0
   50.1660  160.2430   30.9600 C   0  0  0  0  0  0  0  0  0  0  0  0
   49.2250  160.6840   30.0180 C   0  0  0  0  0  0  0  0  0  0  0  0
   47.9210  160.9960   30.4060 C   0  0  0  0  0  0  0  0  0  0  0  0
   47.5430  160.8800   31.7420 C   0  0  0  0  0  0  0  0  0  0  0  0
   48.4720  160.4560   32.6910 C   0  0  0  0  0  0  0  0  0  0  0  0
   49.7760  160.1440   32.3040 C   0  0  0  0  0  0  0  0  0  0  0  0
   49.7708  157.6829   31.6756 H   0  0  0  0  0  0  0  0  0  0  0  0
   49.0235  158.6472   30.3571 H   0  0  0  0  0  0  0  0  0  0  0  0
   48.8727  156.8572   30.3571 H   0  0  0  0  0  0  0  0  0  0  0  0
   50.3133  155.5927   29.1370 H   0  0  0  0  0  0  0  0  0  0  0  0
   54.4743  155.2218   24.2282 H   0  0  0  0  0  0  0  0  0  0  0  0
   55.0531  153.2825   22.7653 H   0  0  0  0  0  0  0  0  0  0  0  0
   54.3618  150.9740   23.4209 H   0  0  0  0  0  0  0  0  0  0  0  0
   53.0110  149.6920   24.8610 H   0  0  0  0  0  0  0  0  0  0  0  0
   50.4100  153.4230   29.2670 H   0  0  0  0  0  0  0  0  0  0  0  0
   54.0921  157.1374   27.7430 H   0  0  0  0  0  0  0  0  0  0  0  0
   53.6900  159.2432   28.9932 H   0  0  0  0  0  0  0  0  0  0  0  0
   52.2129  159.8974   31.4307 H   0  0  0  0  0  0  0  0  0  0  0  0
   51.8689  160.7322   29.8266 H   0  0  0  0  0  0  0  0  0  0  0  0
   49.5177  160.7850   28.9625 H   0  0  0  0  0  0  0  0  0  0  0  0
   47.1908  161.3339   29.6560 H   0  0  0  0  0  0  0  0  0  0  0  0
   46.5143  161.1223   32.0471 H   0  0  0  0  0  0  0  0  0  0  0  0
   48.1766  160.3672   33.7469 H   0  0  0  0  0  0  0  0  0  0  0  0
   50.5051  159.8173   33.0601 H   0  0  0  0  0  0  0  0  0  0  0  0
  1  2  1  0
  2  3  2  0
  3  4  1  0
  4  5  1  0
  5  6  1  0
  6  7  1  0
  7  8  2  0
  8  9  1  0
  9 10  2  0
 10 11  1  0
 11 12  1  0
 11 13  2  0
 13 14  1  0
 14 15  2  0
 14 16  1  0
 16 17  1  0
  4 18  2  0
 18 19  1  0
 19 20  2  0
 20 21  1  0
 21 22  1  0
 22 23  2  0
 23 24  1  0
 24 25  2  0
 25 26  1  0
 26 27  2  0
 20  2  1  0
 27 22  1  0
 16  5  2  0
 13  7  1  0
  1 28  1  0
  1 29  1  0
  1 30  1  0
  3 31  1  0
  8 32  1  0
  9 33  1  0
 10 34  1  0
 12 35  1  0
 17 36  1  0
 18 37  1  0
 19 38  1  0
 21 39  1  0
 21 40  1  0
 23 41  1  0
 24 42  1  0
 25 43  1  0
 26 44  1  0
 27 45  1  0
M  END
>  <meeko>  (3) 
{"is_sidechain": [false], "free_energy": -10.186, "intermolecular_energy": -13.82, "internal_energy": 1.606}

$$$$
cand_002_out
     RDKit          3D

 45 48  0  0  0  0  0  0  0  0999 V2000
   54.3450  156.0290   24.3860 C   0  0  0  0  0  0  0  0  0  0  0  0
   53.7410  155.5560   25.6790 C   0  0  0  0  0  0  0  0  0  0  0  0
   53.1940  156.5130   26.5550 C   0  0  0  0  0  0  0  0  0  0  0  0
   52.6270  156.1510   27.7870 C   0  0  0  0  0  0  0  0  0  0  0  0
   52.0850  157.1950   28.6830 C   0  0  0  0  0  0  0  0  0  0  0  0
   50.7470  156.9920   29.0010 O   0  0  0  0  0  0  0  0  0  0  0  0
   50.1170  157.8880   29.8270 C   0  0  0  0  0  0  0  0  0  0  0  0
   48.7710  157.6530   30.1080 C   0  0  0  0  0  0  0  0  0  0  0  0
   48.0710  158.5260   30.9430 C   0  0  0  0  0  0  0  0  0  0  0  0
   48.7170  159.6320   31.4970 C   0  0  0  0  0  0  0  0  0  0  0  0
   50.0610  159.8640   31.2160 C   0  0  0  0  0  0  0  0  0  0  0  0
   50.6310  160.9670   31.7920 O   0  0  0  0  0  0  0  0  0  0  0  0
   50.7600  158.9910   30.3790 C   0  0  0  0  0  0  0  0  0  0  0  0
   52.1730  159.1980   30.0570 C   0  0  0  0  0  0  0  0  0  0  0  0
   52.8120  160.1450   30.5120 O   0  0  0  0  0  0  0  0  0  0  0  0
   52.8210  158.2190   29.1550 C   0  0  0  0  0  0  0  0  0  0  0  0
   54.1590  158.4170   28.8680 O   0  0  0  0  0  0  0  0  0  0  0  0
   52.6320  154.8010   28.1470 C   0  0  0  0  0  0  0  0  0  0  0  0
   53.1800  153.8390   27.2960 C   0  0  0  0  0  0  0  0  0  0  0  0
   53.7430  154.1990   26.0590 C   0  0  0  0  0  0  0  0  0  0  0  0
   54.3330  153.1040   25.1870 C   0  0  0  0  0  0  0  0  0  0  0  0
   53.7450  151.7250   25.3950 C   0  0  0  0  0  0  0  0  0  0  0  0
   54.2930  150.6190   24.7280 C   0  0  0  0  0  0  0  0  0  0  0  0
   53.7450  149.3460   24.8910 C   0  0  0  0  0  0  0  0  0  0  0  0
   52.6370  149.1630   25.7150 C   0  0  0  0  0  0  0  0  0  0  0  0
   52.0730  150.2550   26.3730 C   0  0  0  0  0  0  0  0  0  0  0  0
   52.6210  151.5290   26.2110 C   0  0  0  0  0  0  0  0  0  0  0  0
   55.1945  156.6943   24.5999 H   0  0  0  0  0  0  0  0  0  0  0  0
   54.6950  155.1623   23.8061 H   0  0  0  0  0  0  0  0  0  0  0  0
   53.5874  156.5765   23.8061 H   0  0  0  0  0  0  0  0  0  0  0  0
   53.2115  157.5742   26.2658 H   0  0  0  0  0  0  0  0  0  0  0  0
   48.2617  156.7808   29.6722 H   0  0  0  0  0  0  0  0  0  0  0  0
   47.0094  158.3418   31.1644 H   0  0  0  0  0  0  0  0  0  0  0  0
   48.1652  160.3196   32.1548 H   0  0  0  0  0  0  0  0  0  0  0  0
   51.1060  161.5780   31.2650 H   0  0  0  0  0  0  0  0  0  0  0  0
   54.7200  158.8180   29.5030 H   0  0  0  0  0  0  0  0  0  0  0  0
   52.1999  154.4928   29.1105 H   0  0  0  0  0  0  0  0  0  0  0  0
   53.1710  152.7815   27.5986 H   0  0  0  0  0  0  0  0  0  0  0  0
   54.1760  153.3854   24.1353 H   0  0  0  0  0  0  0  0  0  0  0  0
   55.3935  153.0285   25.4691 H   0  0  0  0  0  0  0  0  0  0  0  0
   55.1635  150.7567   24.0698 H   0  0  0  0  0  0  0  0  0  0  0  0
   54.1886  148.4859   24.3681 H   0  0  0  0  0  0  0  0  0  0  0  0
   52.2078  148.1587   25.8463 H   0  0  0  0  0  0  0  0  0  0  0  0
   51.1953  150.1128   27.0206 H   0  0  0  0  0  0  0  0  0  0  0  0
   52.1670  152.3871   26.7282 H   0  0  0  0  0  0  0  0  0  0  0  0
  1  2  1  0
  2  3  2  0
  3  4  1  0
  4  5  1  0
  5  6  1  0
  6  7  1  0
  7  8  2  0
  8  9  1  0
  9 10  2  0
 10 11  1  0
 11 12  1  0
 11 13  2  0
 13 14  1  0
 14 15  2  0
 14 16  1  0
 16 17  1  0
  4 18  2  0
 18 19  1  0
 19 20  2  0
 20 21  1  0
 21 22  1  0
 22 23  2  0
 23 24  1  0
 24 25  2  0
 25 26  1  0
 26 27  2  0
 20  2  1  0
 27 22  1  0
 16  5  2  0
 13  7  1  0
  1 28  1  0
  1 29  1  0
  1 30  1  0
  3 31  1  0
  8 32  1  0
  9 33  1  0
 10 34  1  0
 12 35  1  0
 17 36  1  0
 18 37  1  0
 19 38  1  0
 21 39  1  0
 21 40  1  0
 23 41  1  0
 24 42  1  0
 25 43  1  0
 26 44  1  0
 27 45  1  0
M  END
>  <meeko>  (4) 
{"is_sidechain": [false], "free_energy": -9.723, "intermolecular_energy": -12.011, "internal_energy": 0.369}

$$$$
cand_002_out
     RDKit          3D

 45 48  0  0  0  0  0  0  0  0999 V2000
   51.7930  158.9580   30.1770 C   0  0  0  0  0  0  0  0  0  0  0  0
   51.3240  157.6090   29.7080 C   0  0  0  0  0  0  0  0  0  0  0  0
   52.0530  156.9580   28.6940 C   0  0  0  0  0  0  0  0  0  0  0  0
   51.6690  155.7050   28.1930 C   0  0  0  0  0  0  0  0  0  0  0  0
   52.4540  155.0710   27.1130 C   0  0  0  0  0  0  0  0  0  0  0  0
   52.2990  153.6910   27.0700 O   0  0  0  0  0  0  0  0  0  0  0  0
   52.9730  152.9750   26.1140 C   0  0  0  0  0  0  0  0  0  0  0  0
   52.7980  151.5910   26.1170 C   0  0  0  0  0  0  0  0  0  0  0  0
   53.4540  150.8040   25.1690 C   0  0  0  0  0  0  0  0  0  0  0  0
   54.2850  151.4000   24.2180 C   0  0  0  0  0  0  0  0  0  0  0  0
   54.4570  152.7820   24.2170 C   0  0  0  0  0  0  0  0  0  0  0  0
   55.2840  153.3000   23.2570 O   0  0  0  0  0  0  0  0  0  0  0  0
   53.8010  153.5690   25.1670 C   0  0  0  0  0  0  0  0  0  0  0  0
   53.9550  155.0240   25.2000 C   0  0  0  0  0  0  0  0  0  0  0  0
   54.6630  155.6230   24.3930 O   0  0  0  0  0  0  0  0  0  0  0  0
   53.2220  155.7670   26.2520 C   0  0  0  0  0  0  0  0  0  0  0  0
   53.3640  157.1420   26.2660 O   0  0  0  0  0  0  0  0  0  0  0  0
   50.5160  155.1100   28.7100 C   0  0  0  0  0  0  0  0  0  0  0  0
   49.7720  155.7460   29.7070 C   0  0  0  0  0  0  0  0  0  0  0  0
   50.1590  156.9980   30.2160 C   0  0  0  0  0  0  0  0  0  0  0  0
   49.3000  157.6400   31.2920 C   0  0  0  0  0  0  0  0  0  0  0  0
   49.1370  159.1400   31.1790 C   0  0  0  0  0  0  0  0  0  0  0  0
   49.3230  159.9540   32.3070 C   0  0  0  0  0  0  0  0  0  0  0  0
   49.1510  161.3360   32.2240 C   0  0  0  0  0  0  0  0  0  0  0  0
   48.7840  161.9230   31.0140 C   0  0  0  0  0  0  0  0  0  0  0  0
   48.5830  161.1250   29.8890 C   0  0  0  0  0  0  0  0  0  0  0  0
   48.7550  159.7420   29.9710 C   0  0  0  0  0  0  0  0  0  0  0  0
   51.8011  158.9814   31.2767 H   0  0  0  0  0  0  0  0  0  0  0  0
   52.8089  159.1449   29.7987 H   0  0  0  0  0  0  0  0  0  0  0  0
   51.1122  159.7348   29.7987 H   0  0  0  0  0  0  0  0  0  0  0  0
   52.9491  157.4459   28.2830 H   0  0  0  0  0  0  0  0  0  0  0  0
   52.1437  151.1204   26.8656 H   0  0  0  0  0  0  0  0  0  0  0  0
   53.3162  149.7127   25.1710 H   0  0  0  0  0  0  0  0  0  0  0  0
   54.8024  150.7794   23.4716 H   0  0  0  0  0  0  0  0  0  0  0  0
   55.4540  152.8150   22.4740 H   0  0  0  0  0  0  0  0  0  0  0  0
   54.2190  157.5250   26.2450 H   0  0  0  0  0  0  0  0  0  0  0  0
   50.1905  154.1310   28.3285 H   0  0  0  0  0  0  0  0  0  0  0  0
   48.8678  155.2587   30.1005 H   0  0  0  0  0  0  0  0  0  0  0  0
   48.2997  157.1849   31.2449 H   0  0  0  0  0  0  0  0  0  0  0  0
   49.8208  157.4613   32.2442 H   0  0  0  0  0  0  0  0  0  0  0  0
   49.6074  159.4976   33.2666 H   0  0  0  0  0  0  0  0  0  0  0  0
   49.3052  161.9632   33.1144 H   0  0  0  0  0  0  0  0  0  0  0  0
   48.6534  163.0132   30.9472 H   0  0  0  0  0  0  0  0  0  0  0  0
   48.2883  161.5859   28.9347 H   0  0  0  0  0  0  0  0  0  0  0  0
   48.5894  159.1186   29.0800 H   0  0  0  0  0  0  0  0  0  0  0  0
  1  2  1  0
  2  3  2  0
  3  4  1  0
  4  5  1  0
  5  6  1  0
  6  7  1  0
  7  8  2  0
  8  9  1  0
  9 10  2  0
 10 11  1  0
 11 12  1  0
 11 13  2  0
 13 14  1  0
 14 15  2  0
 14 16  1  0
 16 17  1  0
  4 18  2  0
 18 19  1  0
 19 20  2  0
 20 21  1  0
 21 22  1  0
 22 23  2  0
 23 24  1  0
 24 25  2  0
 25 26  1  0
 26 27  2  0
 20  2  1  0
 27 22  1  0
 16  5  2  0
 13  7  1  0
  1 28  1  0
  1 29  1  0
  1 30  1  0
  3 31  1  0
  8 32  1  0
  9 33  1  0
 10 34  1  0
 12 35  1  0
 17 36  1  0
 18 37  1  0
 19 38  1  0
 21 39  1  0
 21 40  1  0
 23 41  1  0
 24 42  1  0
 25 43  1  0
 26 44  1  0
 27 45  1  0
M  END
>  <meeko>  (5) 
{"is_sidechain": [false], "free_energy": -9.507, "intermolecular_energy": -12.217, "internal_energy": 0.841}

$$$$
cand_002_out
     RDKit          3D

 45 48  0  0  0  0  0  0  0  0999 V2000
   53.4300  155.9750   26.4230 C   0  0  0  0  0  0  0  0  0  0  0  0
   52.4030  155.9280   27.5210 C   0  0  0  0  0  0  0  0  0  0  0  0
   52.1530  157.1020   28.2580 C   0  0  0  0  0  0  0  0  0  0  0  0
   51.2210  157.1330   29.3070 C   0  0  0  0  0  0  0  0  0  0  0  0
   51.0090  158.3830   30.0670 C   0  0  0  0  0  0  0  0  0  0  0  0
   49.7390  158.4680   30.6230 O   0  0  0  0  0  0  0  0  0  0  0  0
   49.4070  159.5790   31.3570 C   0  0  0  0  0  0  0  0  0  0  0  0
   48.1170  159.6280   31.8850 C   0  0  0  0  0  0  0  0  0  0  0  0
   47.7150  160.7300   32.6420 C   0  0  0  0  0  0  0  0  0  0  0  0
   48.6040  161.7820   32.8710 C   0  0  0  0  0  0  0  0  0  0  0  0
   49.8910  161.7310   32.3430 C   0  0  0  0  0  0  0  0  0  0  0  0
   50.7100  162.7950   32.6060 O   0  0  0  0  0  0  0  0  0  0  0  0
   50.2920  160.6280   31.5840 C   0  0  0  0  0  0  0  0  0  0  0  0
   51.6350  160.5340   31.0110 C   0  0  0  0  0  0  0  0  0  0  0  0
   52.4750  161.4170   31.1740 O   0  0  0  0  0  0  0  0  0  0  0  0
   51.9580  159.3270   30.2160 C   0  0  0  0  0  0  0  0  0  0  0  0
   53.2340  159.2420   29.6910 O   0  0  0  0  0  0  0  0  0  0  0  0
   50.5470  155.9520   29.6290 C   0  0  0  0  0  0  0  0  0  0  0  0
   50.7900  154.7760   28.9160 C   0  0  0  0  0  0  0  0  0  0  0  0
   51.7180  154.7440   27.8610 C   0  0  0  0  0  0  0  0  0  0  0  0
   51.9430  153.4290   27.1350 C   0  0  0  0  0  0  0  0  0  0  0  0
   53.0440  153.4450   26.0960 C   0  0  0  0  0  0  0  0  0  0  0  0
   52.8030  153.9870   24.8250 C   0  0  0  0  0  0  0  0  0  0  0  0
   53.8010  153.9860   23.8490 C   0  0  0  0  0  0  0  0  0  0  0  0
   55.0500  153.4350   24.1280 C   0  0  0  0  0  0  0  0  0  0  0  0
   55.2990  152.8810   25.3820 C   0  0  0  0  0  0  0  0  0  0  0  0
   54.3010  152.8820   26.3590 C   0  0  0  0  0  0  0  0  0  0  0  0
   54.4366  156.0211   26.8642 H   0  0  0  0  0  0  0  0  0  0  0  0
   53.3433  155.0720   25.8009 H   0  0  0  0  0  0  0  0  0  0  0  0
   53.2612  156.8664   25.8009 H   0  0  0  0  0  0  0  0  0  0  0  0
   52.7034  158.0200   28.0044 H   0  0  0  0  0  0  0  0  0  0  0  0
   47.4168  158.7989   31.7051 H   0  0  0  0  0  0  0  0  0  0  0  0
   46.6975  160.7695   33.0582 H   0  0  0  0  0  0  0  0  0  0  0  0
   48.2877  162.6501   33.4680 H   0  0  0  0  0  0  0  0  0  0  0  0
   51.0500  162.9220   33.4700 H   0  0  0  0  0  0  0  0  0  0  0  0
   53.3660  159.3210   28.7660 H   0  0  0  0  0  0  0  0  0  0  0  0
   49.8176  155.9486   30.4524 H   0  0  0  0  0  0  0  0  0  0  0  0
   50.2456  153.8588   29.1848 H   0  0  0  0  0  0  0  0  0  0  0  0
   52.1946  152.6650   27.8854 H   0  0  0  0  0  0  0  0  0  0  0  0
   51.0116  153.2193   26.5887 H   0  0  0  0  0  0  0  0  0  0  0  0
   51.8172  154.4174   24.5949 H   0  0  0  0  0  0  0  0  0  0  0  0
   53.6012  154.4207   22.8585 H   0  0  0  0  0  0  0  0  0  0  0  0
   55.8376  153.4374   23.3601 H   0  0  0  0  0  0  0  0  0  0  0  0
   56.2832  152.4421   25.6028 H   0  0  0  0  0  0  0  0  0  0  0  0
   54.5030  152.4368   27.3444 H   0  0  0  0  0  0  0  0  0  0  0  0
  1  2  1  0
  2  3  2  0
  3  4  1  0
  4  5  1  0
  5  6  1  0
  6  7  1  0
  7  8  2  0
  8  9  1  0
  9 10  2  0
 10 11  1  0
 11 12  1  0
 11 13  2  0
 13 14  1  0
 14 15  2  0
 14 16  1  0
 16 17  1  0
  4 18  2  0
 18 19  1  0
 19 20  2  0
 20 21  1  0
 21 22  1  0
 22 23  2  0
 23 24  1  0
 24 25  2  0
 25 26  1  0
 26 27  2  0
 20  2  1  0
 27 22  1  0
 16  5  2  0
 13  7  1  0
  1 28  1  0
  1 29  1  0
  1 30  1  0
  3 31  1  0
  8 32  1  0
  9 33  1  0
 10 34  1  0
 12 35  1  0
 17 36  1  0
 18 37  1  0
 19 38  1  0
 21 39  1  0
 21 40  1  0
 23 41  1  0
 24 42  1  0
 25 43  1  0
 26 44  1  0
 27 45  1  0
M  END
>  <meeko>  (6) 
{"is_sidechain": [false], "free_energy": -9.28, "intermolecular_energy": -13.596, "internal_energy": 2.5}

$$$$
cand_002_out
     RDKit          3D

 45 48  0  0  0  0  0  0  0  0999 V2000
   50.8230  160.0440   30.1890 C   0  0  0  0  0  0  0  0  0  0  0  0
   50.4120  158.6220   29.9210 C   0  0  0  0  0  0  0  0  0  0  0  0
   51.2960  157.7900   29.2080 C   0  0  0  0  0  0  0  0  0  0  0  0
   50.9760  156.4580   28.9050 C   0  0  0  0  0  0  0  0  0  0  0  0
   51.9280  155.6290   28.1340 C   0  0  0  0  0  0  0  0  0  0  0  0
   52.4300  156.2820   27.0150 O   0  0  0  0  0  0  0  0  0  0  0  0
   53.3250  155.6270   26.2090 C   0  0  0  0  0  0  0  0  0  0  0  0
   53.7930  156.3160   25.0900 C   0  0  0  0  0  0  0  0  0  0  0  0
   54.7070  155.7060   24.2280 C   0  0  0  0  0  0  0  0  0  0  0  0
   55.1550  154.4090   24.4870 C   0  0  0  0  0  0  0  0  0  0  0  0
   54.6870  153.7240   25.6050 C   0  0  0  0  0  0  0  0  0  0  0  0
   55.1670  152.4570   25.7980 O   0  0  0  0  0  0  0  0  0  0  0  0
   53.7710  154.3340   26.4660 C   0  0  0  0  0  0  0  0  0  0  0  0
   53.2540  153.6500   27.6520 C   0  0  0  0  0  0  0  0  0  0  0  0
   53.6050  152.5090   27.9500 O   0  0  0  0  0  0  0  0  0  0  0  0
   52.2810  154.3800   28.4960 C   0  0  0  0  0  0  0  0  0  0  0  0
   51.8100  153.7290   29.6210 O   0  0  0  0  0  0  0  0  0  0  0  0
   49.7330  155.9650   29.3120 C   0  0  0  0  0  0  0  0  0  0  0  0
   48.8390  156.7800   30.0090 C   0  0  0  0  0  0  0  0  0  0  0  0
   49.1590  158.1130   30.3200 C   0  0  0  0  0  0  0  0  0  0  0  0
   48.1360  158.9470   31.0710 C   0  0  0  0  0  0  0  0  0  0  0  0
   48.7090  160.0650   31.9160 C   0  0  0  0  0  0  0  0  0  0  0  0
   49.3550  159.7710   33.1260 C   0  0  0  0  0  0  0  0  0  0  0  0
   49.8660  160.7940   33.9270 C   0  0  0  0  0  0  0  0  0  0  0  0
   49.7300  162.1240   33.5330 C   0  0  0  0  0  0  0  0  0  0  0  0
   49.0790  162.4310   32.3400 C   0  0  0  0  0  0  0  0  0  0  0  0
   48.5680  161.4090   31.5380 C   0  0  0  0  0  0  0  0  0  0  0  0
   50.8719  160.2131   31.2748 H   0  0  0  0  0  0  0  0  0  0  0  0
   51.8117  160.2300   29.7441 H   0  0  0  0  0  0  0  0  0  0  0  0
   50.0860  160.7288   29.7441 H   0  0  0  0  0  0  0  0  0  0  0  0
   52.2643  158.1954   28.8794 H   0  0  0  0  0  0  0  0  0  0  0  0
   53.4425  157.3387   24.8867 H   0  0  0  0  0  0  0  0  0  0  0  0
   55.0744  156.2479   23.3440 H   0  0  0  0  0  0  0  0  0  0  0  0
   55.8763  153.9295   23.8089 H   0  0  0  0  0  0  0  0  0  0  0  0
   55.5110  152.2090   26.6340 H   0  0  0  0  0  0  0  0  0  0  0  0
   52.0010  154.0690   30.4730 H   0  0  0  0  0  0  0  0  0  0  0  0
   49.4567  154.9256   29.0811 H   0  0  0  0  0  0  0  0  0  0  0  0
   47.8663  156.3715   30.3205 H   0  0  0  0  0  0  0  0  0  0  0  0
   47.4538  159.3940   30.3329 H   0  0  0  0  0  0  0  0  0  0  0  0
   47.6380  158.2603   31.7713 H   0  0  0  0  0  0  0  0  0  0  0  0
   49.4600  158.7241   33.4469 H   0  0  0  0  0  0  0  0  0  0  0  0
   50.3766  160.5500   34.8703 H   0  0  0  0  0  0  0  0  0  0  0  0
   50.1358  162.9296   34.1626 H   0  0  0  0  0  0  0  0  0  0  0  0
   48.9675  163.4804   32.0296 H   0  0  0  0  0  0  0  0  0  0  0  0
   48.0498  161.6597   30.6006 H   0  0  0  0  0  0  0  0  0  0  0  0
  1  2  1  0
  2  3  2  0
  3  4  1  0
  4  5  1  0
  5  6  1  0
  6  7  1  0
  7  8  2  0
  8  9  1  0
  9 10  2  0
 10 11  1  0
 11 12  1  0
 11 13  2  0
 13 14  1  0
 14 15  2  0
 14 16  1  0
 16 17  1  0
  4 18  2  0
 18 19  1  0
 19 20  2  0
 20 21  1  0
 21 22  1  0
 22 23  2  0
 23 24  1  0
 24 25  2  0
 25 26  1  0
 26 27  2  0
 20  2  1  0
 27 22  1  0
 16  5  2  0
 13  7  1  0
  1 28  1  0
  1 29  1  0
  1 30  1  0
  3 31  1  0
  8 32  1  0
  9 33  1  0
 10 34  1  0
 12 35  1  0
 17 36  1  0
 18 37  1  0
 19 38  1  0
 21 39  1  0
 21 40  1  0
 23 41  1  0
 24 42  1  0
 25 43  1  0
 26 44  1  0
 27 45  1  0
M  END
>  <meeko>  (7) 
{"is_sidechain": [false], "free_energy": -9.258, "intermolecular_energy": -11.987, "internal_energy": 0.918}

$$$$
cand_002_out
     RDKit          3D

 45 48  0  0  0  0  0  0  0  0999 V2000
   51.5500  152.6870   29.2950 C   0  0  0  0  0  0  0  0  0  0  0  0
   51.8880  154.0720   28.8160 C   0  0  0  0  0  0  0  0  0  0  0  0
   51.2810  155.1710   29.4540 C   0  0  0  0  0  0  0  0  0  0  0  0
   51.5340  156.4910   29.0530 C   0  0  0  0  0  0  0  0  0  0  0  0
   50.8560  157.6120   29.7390 C   0  0  0  0  0  0  0  0  0  0  0  0
   51.7200  158.6520   30.0590 O   0  0  0  0  0  0  0  0  0  0  0  0
   51.2210  159.7580   30.6990 C   0  0  0  0  0  0  0  0  0  0  0  0
   52.1270  160.7710   31.0130 C   0  0  0  0  0  0  0  0  0  0  0  0
   51.6840  161.9250   31.6640 C   0  0  0  0  0  0  0  0  0  0  0  0
   50.3360  162.0640   32.0000 C   0  0  0  0  0  0  0  0  0  0  0  0
   49.4340  161.0510   31.6860 C   0  0  0  0  0  0  0  0  0  0  0  0
   48.1290  161.2530   32.0440 O   0  0  0  0  0  0  0  0  0  0  0  0
   49.8780  159.8970   31.0350 C   0  0  0  0  0  0  0  0  0  0  0  0
   48.9640  158.8090   30.6870 C   0  0  0  0  0  0  0  0  0  0  0  0
   47.7620  158.8610   30.9440 O   0  0  0  0  0  0  0  0  0  0  0  0
   49.5360  157.6250   30.0050 C   0  0  0  0  0  0  0  0  0  0  0  0
   48.6600  156.6090   29.6680 O   0  0  0  0  0  0  0  0  0  0  0  0
   52.3980  156.7030   27.9760 C   0  0  0  0  0  0  0  0  0  0  0  0
   53.0000  155.6250   27.3240 C   0  0  0  0  0  0  0  0  0  0  0  0
   52.7540  154.3010   27.7280 C   0  0  0  0  0  0  0  0  0  0  0  0
   53.4320  153.1740   26.9680 C   0  0  0  0  0  0  0  0  0  0  0  0
   53.9050  153.5280   25.5740 C   0  0  0  0  0  0  0  0  0  0  0  0
   53.7620  152.6040   24.5280 C   0  0  0  0  0  0  0  0  0  0  0  0
   54.2160  152.9070   23.2430 C   0  0  0  0  0  0  0  0  0  0  0  0
   54.8260  154.1340   22.9890 C   0  0  0  0  0  0  0  0  0  0  0  0
   54.9860  155.0560   24.0220 C   0  0  0  0  0  0  0  0  0  0  0  0
   54.5330  154.7540   25.3070 C   0  0  0  0  0  0  0  0  0  0  0  0
   51.5459  152.6702   30.3949 H   0  0  0  0  0  0  0  0  0  0  0  0
   50.5559  152.4018   28.9202 H   0  0  0  0  0  0  0  0  0  0  0  0
   52.3010  151.9760   28.9202 H   0  0  0  0  0  0  0  0  0  0  0  0
   50.5894  154.9892   30.2898 H   0  0  0  0  0  0  0  0  0  0  0  0
   53.1890  160.6614   30.7484 H   0  0  0  0  0  0  0  0  0  0  0  0
   52.3976  162.7245   31.9120 H   0  0  0  0  0  0  0  0  0  0  0  0
   49.9870  162.9728   32.5122 H   0  0  0  0  0  0  0  0  0  0  0  0
   47.9220  161.8230   32.7580 H   0  0  0  0  0  0  0  0  0  0  0  0
   47.7660  156.6500   29.9460 H   0  0  0  0  0  0  0  0  0  0  0  0
   52.6061  157.7290   27.6383 H   0  0  0  0  0  0  0  0  0  0  0  0
   53.6787  155.8150   26.4794 H   0  0  0  0  0  0  0  0  0  0  0  0
   54.3060  152.8482   27.5511 H   0  0  0  0  0  0  0  0  0  0  0  0
   52.6704  152.3905   26.8415 H   0  0  0  0  0  0  0  0  0  0  0  0
   53.2873  151.6309   24.7223 H   0  0  0  0  0  0  0  0  0  0  0  0
   54.0921  152.1764   22.4301 H   0  0  0  0  0  0  0  0  0  0  0  0
   55.1804  154.3743   21.9757 H   0  0  0  0  0  0  0  0  0  0  0  0
   55.4703  156.0236   23.8240 H   0  0  0  0  0  0  0  0  0  0  0  0
   54.6696  155.4841   26.1183 H   0  0  0  0  0  0  0  0  0  0  0  0
  1  2  1  0
  2  3  2  0
  3  4  1  0
  4  5  1  0
  5  6  1  0
  6  7  1  0
  7  8  2  0
  8  9  1  0
  9 10  2  0
 10 11  1  0
 11 12  1  0
 11 13  2  0
 13 14  1  0
 14 15  2  0
 14 16  1  0
 16 17  1  0
  4 18  2  0
 18 19  1  0
 19 20  2  0
 20 21  1  0
 21 22  1  0
 22 23  2  0
 23 24  1  0
 24 25  2  0
 25 26  1  0
 26 27  2  0
 20  2  1  0
 27 22  1  0
 16  5  2  0
 13  7  1  0
  1 28  1  0
  1 29  1  0
  1 30  1  0
  3 31  1  0
  8 32  1  0
  9 33  1  0
 10 34  1  0
 12 35  1  0
 17 36  1  0
 18 37  1  0
 19 38  1  0
 21 39  1  0
 21 40  1  0
 23 41  1  0
 24 42  1  0
 25 43  1  0
 26 44  1  0
 27 45  1  0
M  END
>  <meeko>  (8) 
{"is_sidechain": [false], "free_energy": -9.059, "intermolecular_energy": -11.235, "internal_energy": 0.412}

$$$$
cand_002_out
     RDKit          3D

 45 48  0  0  0  0  0  0  0  0999 V2000
   49.0260  158.2680   30.6990 C   0  0  0  0  0  0  0  0  0  0  0  0
   50.3840  158.1090   30.0710 C   0  0  0  0  0  0  0  0  0  0  0  0
   50.6690  156.9170   29.3800 C   0  0  0  0  0  0  0  0  0  0  0  0
   51.9180  156.6890   28.7810 C   0  0  0  0  0  0  0  0  0  0  0  0
   52.1790  155.4120   28.0840 C   0  0  0  0  0  0  0  0  0  0  0  0
   52.7760  155.5870   26.8410 O   0  0  0  0  0  0  0  0  0  0  0  0
   53.0740  154.4820   26.0850 C   0  0  0  0  0  0  0  0  0  0  0  0
   53.6600  154.7050   24.8390 C   0  0  0  0  0  0  0  0  0  0  0  0
   53.9900  153.6230   24.0200 C   0  0  0  0  0  0  0  0  0  0  0  0
   53.7340  152.3190   24.4480 C   0  0  0  0  0  0  0  0  0  0  0  0
   53.1500  152.0990   25.6920 C   0  0  0  0  0  0  0  0  0  0  0  0
   52.9270  150.7960   26.0490 O   0  0  0  0  0  0  0  0  0  0  0  0
   52.8190  153.1820   26.5110 C   0  0  0  0  0  0  0  0  0  0  0  0
   52.2030  152.9940   27.8250 C   0  0  0  0  0  0  0  0  0  0  0  0
   51.9540  151.8770   28.2740 O   0  0  0  0  0  0  0  0  0  0  0  0
   51.8850  154.2080   28.6120 C   0  0  0  0  0  0  0  0  0  0  0  0
   51.3160  154.0190   29.8580 O   0  0  0  0  0  0  0  0  0  0  0  0
   52.9010  157.6750   28.9030 C   0  0  0  0  0  0  0  0  0  0  0  0
   52.6390  158.8590   29.5960 C   0  0  0  0  0  0  0  0  0  0  0  0
   51.3870  159.0920   30.1900 C   0  0  0  0  0  0  0  0  0  0  0  0
   51.1720  160.3960   30.9390 C   0  0  0  0  0  0  0  0  0  0  0  0
   52.3900  161.2890   31.0430 C   0  0  0  0  0  0  0  0  0  0  0  0
   52.6440  162.2500   30.0530 C   0  0  0  0  0  0  0  0  0  0  0  0
   53.7770  163.0630   30.1230 C   0  0  0  0  0  0  0  0  0  0  0  0
   54.6750  162.9200   31.1790 C   0  0  0  0  0  0  0  0  0  0  0  0
   54.4420  161.9600   32.1620 C   0  0  0  0  0  0  0  0  0  0  0  0
   53.3090  161.1460   32.0930 C   0  0  0  0  0  0  0  0  0  0  0  0
   49.1250  158.2564   31.7945 H   0  0  0  0  0  0  0  0  0  0  0  0
   48.5845  159.2240   30.3808 H   0  0  0  0  0  0  0  0  0  0  0  0
   48.3756  157.4399   30.3808 H   0  0  0  0  0  0  0  0  0  0  0  0
   49.8916  156.1422   29.3071 H   0  0  0  0  0  0  0  0  0  0  0  0
   53.8620  155.7323   24.5017 H   0  0  0  0  0  0  0  0  0  0  0  0
   54.4519  153.7983   23.0372 H   0  0  0  0  0  0  0  0  0  0  0  0
   53.9935  151.4666   23.8029 H   0  0  0  0  0  0  0  0  0  0  0  0
   53.1730  150.1030   25.4680 H   0  0  0  0  0  0  0  0  0  0  0  0
   50.5500  154.5020   30.1010 H   0  0  0  0  0  0  0  0  0  0  0  0
   53.8904  157.5171   28.4489 H   0  0  0  0  0  0  0  0  0  0  0  0
   53.4266  159.6225   29.6783 H   0  0  0  0  0  0  0  0  0  0  0  0
   50.3808  160.9587   30.4220 H   0  0  0  0  0  0  0  0  0  0  0  0
   50.9105  160.1158   31.9701 H   0  0  0  0  0  0  0  0  0  0  0  0
   51.9432  162.3642   29.2128 H   0  0  0  0  0  0  0  0  0  0  0  0
   53.9610  163.8172   29.3437 H   0  0  0  0  0  0  0  0  0  0  0  0
   55.5655  163.5632   31.2365 H   0  0  0  0  0  0  0  0  0  0  0  0
   55.1519  161.8431   32.9941 H   0  0  0  0  0  0  0  0  0  0  0  0
   53.1359  160.3859   32.8691 H   0  0  0  0  0  0  0  0  0  0  0  0
  1  2  1  0
  2  3  2  0
  3  4  1  0
  4  5  1  0
  5  6  1  0
  6  7  1  0
  7  8  2  0
  8  9  1  0
  9 10  2  0
 10 11  1  0
 11 12  1  0
 11 13  2  0
 13 14  1  0
 14 15  2  0
 14 16  1  0
 16 17  1  0
  4 18  2  0
 18 19  1  0
 19 20  2  0
 20 21  1  0
 21 22  1  0
 22 23  2  0
 23 24  1  0
 24 25  2  0
 25 26  1  0
 26 27  2  0
 20  2  1  0
 27 22  1  0
 16  5  2  0
 13  7  1  0
  1 28  1  0
  1 29  1  0
  1 30  1  0
  3 31  1  0
  8 32  1  0
  9 33  1  0
 10 34  1  0
 12 35  1  0
 17 36  1  0
 18 37  1  0
 19 38  1  0
 21 39  1  0
 21 40  1  0
 23 41  1  0
 24 42  1  0
 25 43  1  0
 26 44  1  0
 27 45  1  0
M  END
>  <meeko>  (9) 
{"is_sidechain": [false], "free_energy": -9.019, "intermolecular_energy": -10.373, "internal_energy": -0.401}

$$$$
