cand_047_out
     RDKit          3D

 38 40  0  0  0  0  0  0  0  0999 V2000
   48.1080  158.8630   31.2340 C   0  0  0  0  0  0  0  0  0  0  0  0
   49.5190  158.8870   30.7130 C   0  0  0  0  0  0  0  0  0  0  0  0
   50.0070  157.7540   30.0330 C   0  0  0  0  0  0  0  0  0  0  0  0
   51.3150  157.7070   29.5270 C   0  0  0  0  0  0  0  0  0  0  0  0
   51.8360  156.5110   28.8310 C   0  0  0  0  0  0  0  0  0  0  0  0
   52.4090  156.8080   27.6000 O   0  0  0  0  0  0  0  0  0  0  0  0
   52.9350  155.7880   26.8500 C   0  0  0  0  0  0  0  0  0  0  0  0
   53.5130  156.1340   25.6280 C   0  0  0  0  0  0  0  0  0  0  0  0
   54.0660  155.1420   24.8130 C   0  0  0  0  0  0  0  0  0  0  0  0
   54.0370  153.8070   25.2200 C   0  0  0  0  0  0  0  0  0  0  0  0
   53.4590  153.4640   26.4390 C   0  0  0  0  0  0  0  0  0  0  0  0
   53.4640  152.1390   26.7750 O   0  0  0  0  0  0  0  0  0  0  0  0
   52.9080  154.4570   27.2540 C   0  0  0  0  0  0  0  0  0  0  0  0
   52.2900  154.1400   28.5430 C   0  0  0  0  0  0  0  0  0  0  0  0
   52.2200  152.9880   28.9660 O   0  0  0  0  0  0  0  0  0  0  0  0
   51.7420  155.2650   29.3350 C   0  0  0  0  0  0  0  0  0  0  0  0
   51.1490  154.9540   30.5450 O   0  0  0  0  0  0  0  0  0  0  0  0
   52.1470  158.8110   29.7300 C   0  0  0  0  0  0  0  0  0  0  0  0
   51.6800  159.9400   30.4090 C   0  0  0  0  0  0  0  0  0  0  0  0
   50.3700  159.9910   30.9100 C   0  0  0  0  0  0  0  0  0  0  0  0
   49.9180  161.2490   31.6140 C   0  0  0  0  0  0  0  0  0  0  0  0
   50.2560  161.2300   33.0960 C   0  0  0  0  0  0  0  0  0  0  0  0
   49.4320  160.3430   33.7200 F   0  0  0  0  0  0  0  0  0  0  0  0
   48.1232  158.8633   32.3339 H   0  0  0  0  0  0  0  0  0  0  0  0
   47.5692  159.7521   30.8745 H   0  0  0  0  0  0  0  0  0  0  0  0
   47.5998  157.9561   30.8745 H   0  0  0  0  0  0  0  0  0  0  0  0
   49.3468  156.8850   29.8953 H   0  0  0  0  0  0  0  0  0  0  0  0
   53.5335  157.1858   25.3065 H   0  0  0  0  0  0  0  0  0  0  0  0
   54.5242  155.4135   23.8505 H   0  0  0  0  0  0  0  0  0  0  0  0
   54.4707  153.0264   24.5777 H   0  0  0  0  0  0  0  0  0  0  0  0
   53.0300  151.8520   27.5550 H   0  0  0  0  0  0  0  0  0  0  0  0
   51.4740  155.3350   31.3370 H   0  0  0  0  0  0  0  0  0  0  0  0
   53.1797  158.7915   29.3517 H   0  0  0  0  0  0  0  0  0  0  0  0
   52.3491  160.8012   30.5528 H   0  0  0  0  0  0  0  0  0  0  0  0
   50.4141  162.1133   31.1484 H   0  0  0  0  0  0  0  0  0  0  0  0
   48.8243  161.3158   31.5177 H   0  0  0  0  0  0  0  0  0  0  0  0
   51.3031  160.9222   33.2330 H   0  0  0  0  0  0  0  0  0  0  0  0
   50.1198  162.2339   33.5246 H   0  0  0  0  0  0  0  0  0  0  0  0
  1  2  1  0
  2  3  2  0
  3  4  1  0
  4  5  1  0
  5  6  1  0
  6  7  1  0
  7  8  2  0
  8  9  1  0
  9 10  2  0
 10 11  1  0
 11 12  1  0
 11 13  2  0
 13 14  1  0
 14 15  2  0
 14 16  1  0
 16 17  1  0
  4 18  2  0
 18 19  1  0
 19 20  2  0
 20 21  1  0
 21 22  1  0
 22 23  1  0
 20  2  1  0
 16  5  2  0
 13  7  1  0
  1 24  1  0
  1 25  1  0
  1 26  1  0
  3 27  1  0
  8 28  1  0
  9 29  1  0
 10 30  1  0
 12 31  1  0
 17 32  1  0
 18 33  1  0
 19 34  1  0
 21 35  1  0
 21 36  1  0
 22 37  1  0
 22 38  1  0
M  END
>  <meeko>  (1) 
{"is_sidechain": [false], "free_energy": -11.101, "intermolecular_energy": -13.696, "internal_energy": -0.298}

$$$$
cand_047_out
     RDKit          3D

 38 40  0  0  0  0  0  0  0  0999 V2000
   51.8910  161.1030   30.6000 C   0  0  0  0  0  0  0  0  0  0  0  0
   51.1310  159.8160   30.4310 C   0  0  0  0  0  0  0  0  0  0  0  0
   51.7540  158.7470   29.7580 C   0  0  0  0  0  0  0  0  0  0  0  0
   51.1010  157.5210   29.5600 C   0  0  0  0  0  0  0  0  0  0  0  0
   51.7450  156.4050   28.8350 C   0  0  0  0  0  0  0  0  0  0  0  0
   52.2930  156.7950   27.6190 O   0  0  0  0  0  0  0  0  0  0  0  0
   52.9230  155.8560   26.8440 C   0  0  0  0  0  0  0  0  0  0  0  0
   53.4710  156.2940   25.6380 C   0  0  0  0  0  0  0  0  0  0  0  0
   54.1260  155.3880   24.8000 C   0  0  0  0  0  0  0  0  0  0  0  0
   54.2300  154.0450   25.1670 C   0  0  0  0  0  0  0  0  0  0  0  0
   53.6810  153.6100   26.3700 C   0  0  0  0  0  0  0  0  0  0  0  0
   53.8180  152.2820   26.6680 O   0  0  0  0  0  0  0  0  0  0  0  0
   53.0280  154.5180   27.2090 C   0  0  0  0  0  0  0  0  0  0  0  0
   52.4370  154.1010   28.4820 C   0  0  0  0  0  0  0  0  0  0  0  0
   52.4800  152.9360   28.8710 O   0  0  0  0  0  0  0  0  0  0  0  0
   51.7730  155.1420   29.3010 C   0  0  0  0  0  0  0  0  0  0  0  0
   51.2070  154.7370   30.4960 O   0  0  0  0  0  0  0  0  0  0  0  0
   49.7930  157.3810   30.0310 C   0  0  0  0  0  0  0  0  0  0  0  0
   49.1580  158.4340   30.6960 C   0  0  0  0  0  0  0  0  0  0  0  0
   49.8130  159.6590   30.8990 C   0  0  0  0  0  0  0  0  0  0  0  0
   49.0800  160.7510   31.6450 C   0  0  0  0  0  0  0  0  0  0  0  0
   49.5060  160.8360   33.1020 C   0  0  0  0  0  0  0  0  0  0  0  0
   49.3410  159.6120   33.6760 F   0  0  0  0  0  0  0  0  0  0  0  0
   52.0170  161.3164   31.6717 H   0  0  0  0  0  0  0  0  0  0  0  0
   52.8793  161.0102   30.1259 H   0  0  0  0  0  0  0  0  0  0  0  0
   51.3325  161.9236   30.1259 H   0  0  0  0  0  0  0  0  0  0  0  0
   52.7782  158.8765   29.3781 H   0  0  0  0  0  0  0  0  0  0  0  0
   53.3875  157.3516   25.3472 H   0  0  0  0  0  0  0  0  0  0  0  0
   54.5602  155.7332   23.8501 H   0  0  0  0  0  0  0  0  0  0  0  0
   54.7449  153.3317   24.5066 H   0  0  0  0  0  0  0  0  0  0  0  0
   54.0140  152.0170   27.5460 H   0  0  0  0  0  0  0  0  0  0  0  0
   51.1340  153.8240   30.6930 H   0  0  0  0  0  0  0  0  0  0  0  0
   49.2575  156.4326   29.8770 H   0  0  0  0  0  0  0  0  0  0  0  0
   48.1305  158.3008   31.0655 H   0  0  0  0  0  0  0  0  0  0  0  0
   49.2891  161.7148   31.1579 H   0  0  0  0  0  0  0  0  0  0  0  0
   48.0059  160.5150   31.6202 H   0  0  0  0  0  0  0  0  0  0  0  0
   50.5632  161.1338   33.1620 H   0  0  0  0  0  0  0  0  0  0  0  0
   48.8944  161.5832   33.6289 H   0  0  0  0  0  0  0  0  0  0  0  0
  1  2  1  0
  2  3  2  0
  3  4  1  0
  4  5  1  0
  5  6  1  0
  6  7  1  0
  7  8  2  0
  8  9  1  0
  9 10  2  0
 10 11  1  0
 11 12  1  0
 11 13  2  0
 13 14  1  0
 14 15  2  0
 14 16  1  0
 16 17  1  0
  4 18  2  0
 18 19  1  0
 19 20  2  0
 20 21  1  0
 21 22  1  0
 22 23  1  0
 20  2  1  0
 16  5  2  0
 13  7  1  0
  1 24  1  0
  1 25  1  0
  1 26  1  0
  3 27  1  0
  8 28  1  0
  9 29  1  0
 10 30  1  0
 12 31  1  0
 17 32  1  0
 18 33  1  0
 19 34  1  0
 21 35  1  0
 21 36  1  0
 22 37  1  0
 22 38  1  0
M  END
>  <meeko>  (2) 
{"is_sidechain": [false], "free_energy": -11.017, "intermolecular_energy": -13.717, "internal_energy": -0.173}

$$$$
cand_047_out
     RDKit          3D

 38 40  0  0  0  0  0  0  0  0999 V2000
   48.4250  158.3890   31.1780 C   0  0  0  0  0  0  0  0  0  0  0  0
   49.7930  158.4530   30.5540 C   0  0  0  0  0  0  0  0  0  0  0  0
   50.2630  157.3340   29.8390 C   0  0  0  0  0  0  0  0  0  0  0  0
   51.5300  157.3240   29.2380 C   0  0  0  0  0  0  0  0  0  0  0  0
   52.0340  156.1420   28.5060 C   0  0  0  0  0  0  0  0  0  0  0  0
   52.5580  156.4620   27.2590 O   0  0  0  0  0  0  0  0  0  0  0  0
   53.0630  155.4570   26.4750 C   0  0  0  0  0  0  0  0  0  0  0  0
   53.5930  155.8250   25.2370 C   0  0  0  0  0  0  0  0  0  0  0  0
   54.1220  154.8500   24.3880 C   0  0  0  0  0  0  0  0  0  0  0  0
   54.1190  153.5080   24.7750 C   0  0  0  0  0  0  0  0  0  0  0  0
   53.5880  153.1430   26.0100 C   0  0  0  0  0  0  0  0  0  0  0  0
   53.6150  151.8130   26.3260 O   0  0  0  0  0  0  0  0  0  0  0  0
   53.0600  154.1200   26.8590 C   0  0  0  0  0  0  0  0  0  0  0  0
   52.4930  153.7790   28.1650 C   0  0  0  0  0  0  0  0  0  0  0  0
   52.4470  152.6210   28.5730 O   0  0  0  0  0  0  0  0  0  0  0  0
   51.9670  154.8890   28.9940 C   0  0  0  0  0  0  0  0  0  0  0  0
   51.4210  154.5550   30.2200 O   0  0  0  0  0  0  0  0  0  0  0  0
   52.3410  158.4530   29.3780 C   0  0  0  0  0  0  0  0  0  0  0  0
   51.8930  159.5690   30.0890 C   0  0  0  0  0  0  0  0  0  0  0  0
   50.6220  159.5830   30.6870 C   0  0  0  0  0  0  0  0  0  0  0  0
   50.1860  160.8290   31.4220 C   0  0  0  0  0  0  0  0  0  0  0  0
   48.9820  161.4890   30.7700 C   0  0  0  0  0  0  0  0  0  0  0  0
   48.9780  161.1740   29.4450 F   0  0  0  0  0  0  0  0  0  0  0  0
   48.5212  158.3935   32.2738 H   0  0  0  0  0  0  0  0  0  0  0  0
   47.8350  159.2605   30.8582 H   0  0  0  0  0  0  0  0  0  0  0  0
   47.9189  157.4662   30.8582 H   0  0  0  0  0  0  0  0  0  0  0  0
   49.6201  156.4459   29.7499 H   0  0  0  0  0  0  0  0  0  0  0  0
   53.5940  156.8814   24.9305 H   0  0  0  0  0  0  0  0  0  0  0  0
   54.5415  155.1396   23.4133 H   0  0  0  0  0  0  0  0  0  0  0  0
   54.5352  152.7406   24.1057 H   0  0  0  0  0  0  0  0  0  0  0  0
   52.8280  151.3790   26.5910 H   0  0  0  0  0  0  0  0  0  0  0  0
   50.6920  153.9680   30.2630 H   0  0  0  0  0  0  0  0  0  0  0  0
   53.3427  158.4633   28.9237 H   0  0  0  0  0  0  0  0  0  0  0  0
   52.5452  160.4499   30.1819 H   0  0  0  0  0  0  0  0  0  0  0  0
   49.9246  160.5574   32.4554 H   0  0  0  0  0  0  0  0  0  0  0  0
   51.0198  161.5460   31.3950 H   0  0  0  0  0  0  0  0  0  0  0  0
   48.0581  161.1221   31.2409 H   0  0  0  0  0  0  0  0  0  0  0  0
   49.0374  162.5803   30.8965 H   0  0  0  0  0  0  0  0  0  0  0  0
  1  2  1  0
  2  3  2  0
  3  4  1  0
  4  5  1  0
  5  6  1  0
  6  7  1  0
  7  8  2  0
  8  9  1  0
  9 10  2  0
 10 11  1  0
 11 12  1  0
 11 13  2  0
 13 14  1  0
 14 15  2  0
 14 16  1  0
 16 17  1  0
  4 18  2  0
 18 19  1  0
 19 20  2  0
 20 21  1  0
 21 22  1  0
 22 23  1  0
 20  2  1  0
 16  5  2  0
 13  7  1  0
  1 24  1  0
  1 25  1  0
  1 26  1  0
  3 27  1  0
  8 28  1  0
  9 29  1  0
 10 30  1  0
 12 31  1  0
 17 32  1  0
 18 33  1  0
 19 34  1  0
 21 35  1  0
 21 36  1  0
 22 37  1  0
 22 38  1  0
M  END
>  <meeko>  (3) 
{"is_sidechain": [false], "free_energy": -10.666, "intermolecular_energy": -13.527, "internal_energy": 0.07}

$$$$
cand_047_out
     RDKit          3D

 38 40  0  0  0  0  0  0  0  0999 V2000
   53.5790  156.1720   25.9290 C   0  0  0  0  0  0  0  0  0  0  0  0
   52.8370  155.9690   27.2210 C   0  0  0  0  0  0  0  0  0  0  0  0
   52.3480  157.0980   27.9060 C   0  0  0  0  0  0  0  0  0  0  0  0
   51.6530  156.9810   29.1180 C   0  0  0  0  0  0  0  0  0  0  0  0
   51.1580  158.1670   29.8490 C   0  0  0  0  0  0  0  0  0  0  0  0
   49.8220  158.0570   30.2170 O   0  0  0  0  0  0  0  0  0  0  0  0
   49.2370  159.0890   30.9040 C   0  0  0  0  0  0  0  0  0  0  0  0
   47.8980  158.9300   31.2660 C   0  0  0  0  0  0  0  0  0  0  0  0
   47.2400  159.9440   31.9660 C   0  0  0  0  0  0  0  0  0  0  0  0
   47.9200  161.1170   32.3010 C   0  0  0  0  0  0  0  0  0  0  0  0
   49.2550  161.2740   31.9380 C   0  0  0  0  0  0  0  0  0  0  0  0
   49.8600  162.4470   32.2960 O   0  0  0  0  0  0  0  0  0  0  0  0
   49.9130  160.2570   31.2390 C   0  0  0  0  0  0  0  0  0  0  0  0
   51.3150  160.3820   30.8380 C   0  0  0  0  0  0  0  0  0  0  0  0
   51.9780  161.3860   31.0890 O   0  0  0  0  0  0  0  0  0  0  0  0
   51.9220  159.2450   30.1070 C   0  0  0  0  0  0  0  0  0  0  0  0
   53.2440  159.3780   29.7220 O   0  0  0  0  0  0  0  0  0  0  0  0
   51.4680  155.7050   29.6570 C   0  0  0  0  0  0  0  0  0  0  0  0
   51.9520  154.5740   28.9940 C   0  0  0  0  0  0  0  0  0  0  0  0
   52.6420  154.6900   27.7770 C   0  0  0  0  0  0  0  0  0  0  0  0
   53.1200  153.4270   27.0980 C   0  0  0  0  0  0  0  0  0  0  0  0
   52.2340  153.0350   25.9270 C   0  0  0  0  0  0  0  0  0  0  0  0
   52.9880  153.0320   24.7920 F   0  0  0  0  0  0  0  0  0  0  0  0
   54.6194  156.4567   26.1445 H   0  0  0  0  0  0  0  0  0  0  0  0
   53.5672  155.2376   25.3487 H   0  0  0  0  0  0  0  0  0  0  0  0
   53.0932  156.9702   25.3487 H   0  0  0  0  0  0  0  0  0  0  0  0
   52.5157  158.0978   27.4790 H   0  0  0  0  0  0  0  0  0  0  0  0
   47.3617  158.0071   31.0002 H   0  0  0  0  0  0  0  0  0  0  0  0
   46.1857  159.8186   32.2535 H   0  0  0  0  0  0  0  0  0  0  0  0
   47.4014  161.9160   32.8511 H   0  0  0  0  0  0  0  0  0  0  0  0
   49.7090  162.8100   33.1470 H   0  0  0  0  0  0  0  0  0  0  0  0
   53.9140  159.4580   30.3710 H   0  0  0  0  0  0  0  0  0  0  0  0
   50.9360  155.5897   30.6129 H   0  0  0  0  0  0  0  0  0  0  0  0
   51.7899  153.5782   29.4322 H   0  0  0  0  0  0  0  0  0  0  0  0
   54.1437  153.5885   26.7293 H   0  0  0  0  0  0  0  0  0  0  0  0
   53.0846  152.6122   27.8362 H   0  0  0  0  0  0  0  0  0  0  0  0
   51.8173  152.0314   26.0975 H   0  0  0  0  0  0  0  0  0  0  0  0
   51.4064  153.7525   25.8259 H   0  0  0  0  0  0  0  0  0  0  0  0
  1  2  1  0
  2  3  2  0
  3  4  1  0
  4  5  1  0
  5  6  1  0
  6  7  1  0
  7  8  2  0
  8  9  1  0
  9 10  2  0
 10 11  1  0
 11 12  1  0
 11 13  2  0
 13 14  1  0
 14 15  2  0
 14 16  1  0
 16 17  1  0
  4 18  2  0
 18 19  1  0
 19 20  2  0
 20 21  1  0
 21 22  1  0
 22 23  1  0
 20  2  1  0
 16  5  2  0
 13  7  1  0
  1 24  1  0
  1 25  1  0
  1 26  1  0
  3 27  1  0
  8 28  1  0
  9 29  1  0
 10 30  1  0
 12 31  1  0
 17 32  1  0
 18 33  1  0
 19 34  1  0
 21 35  1  0
 21 36  1  0
 22 37  1  0
 22 38  1  0
M  END
>  <meeko>  (4) 
{"is_sidechain": [false], "free_energy": -10.287, "intermolecular_energy": -12.862, "internal_energy": -0.128}

$$$$
cand_047_out
     RDKit          3D

 38 40  0  0  0  0  0  0  0  0999 V2000
   51.8640  153.3250   28.9260 C   0  0  0  0  0  0  0  0  0  0  0  0
   52.1090  154.7430   28.4870 C   0  0  0  0  0  0  0  0  0  0  0  0
   51.6250  155.7930   29.2910 C   0  0  0  0  0  0  0  0  0  0  0  0
   51.8120  157.1370   28.9390 C   0  0  0  0  0  0  0  0  0  0  0  0
   51.2860  158.2400   29.7710 C   0  0  0  0  0  0  0  0  0  0  0  0
   49.9450  158.0780   30.1000 O   0  0  0  0  0  0  0  0  0  0  0  0
   49.3310  159.0300   30.8710 C   0  0  0  0  0  0  0  0  0  0  0  0
   47.9890  158.8190   31.1890 C   0  0  0  0  0  0  0  0  0  0  0  0
   47.3030  159.7520   31.9710 C   0  0  0  0  0  0  0  0  0  0  0  0
   47.9580  160.8960   32.4310 C   0  0  0  0  0  0  0  0  0  0  0  0
   49.2970  161.1050   32.1120 C   0  0  0  0  0  0  0  0  0  0  0  0
   49.8770  162.2450   32.5940 O   0  0  0  0  0  0  0  0  0  0  0  0
   49.9830  160.1690   31.3310 C   0  0  0  0  0  0  0  0  0  0  0  0
   51.3910  160.3510   30.9720 C   0  0  0  0  0  0  0  0  0  0  0  0
   52.0340  161.3350   31.3330 O   0  0  0  0  0  0  0  0  0  0  0  0
   52.0280  159.2980   30.1480 C   0  0  0  0  0  0  0  0  0  0  0  0
   53.3550  159.4850   29.8030 O   0  0  0  0  0  0  0  0  0  0  0  0
   52.4800  157.4250   27.7450 C   0  0  0  0  0  0  0  0  0  0  0  0
   52.9620  156.3950   26.9320 C   0  0  0  0  0  0  0  0  0  0  0  0
   52.7800  155.0490   27.2880 C   0  0  0  0  0  0  0  0  0  0  0  0
   53.3440  153.9830   26.3770 C   0  0  0  0  0  0  0  0  0  0  0  0
   53.9400  154.5680   25.1080 C   0  0  0  0  0  0  0  0  0  0  0  0
   53.3170  154.0070   24.0350 F   0  0  0  0  0  0  0  0  0  0  0  0
   51.8558  153.2776   30.0249 H   0  0  0  0  0  0  0  0  0  0  0  0
   50.8935  152.9832   28.5370 H   0  0  0  0  0  0  0  0  0  0  0  0
   52.6636  152.6774   28.5370 H   0  0  0  0  0  0  0  0  0  0  0  0
   51.0862  155.5523   30.2193 H   0  0  0  0  0  0  0  0  0  0  0  0
   47.4716  157.9193   30.8246 H   0  0  0  0  0  0  0  0  0  0  0  0
   46.2457  159.5850   32.2245 H   0  0  0  0  0  0  0  0  0  0  0  0
   47.4168  161.6312   33.0447 H   0  0  0  0  0  0  0  0  0  0  0  0
   49.8290  162.4440   33.5090 H   0  0  0  0  0  0  0  0  0  0  0  0
   53.9450  159.8790   30.4140 H   0  0  0  0  0  0  0  0  0  0  0  0
   52.6277  158.4722   27.4424 H   0  0  0  0  0  0  0  0  0  0  0  0
   53.4914  156.6425   26.0001 H   0  0  0  0  0  0  0  0  0  0  0  0
   54.1299  153.4350   26.9174 H   0  0  0  0  0  0  0  0  0  0  0  0
   52.5186  153.3167   26.0860 H   0  0  0  0  0  0  0  0  0  0  0  0
   53.7889  155.6575   25.0960 H   0  0  0  0  0  0  0  0  0  0  0  0
   55.0188  154.3567   25.0682 H   0  0  0  0  0  0  0  0  0  0  0  0
  1  2  1  0
  2  3  2  0
  3  4  1  0
  4  5  1  0
  5  6  1  0
  6  7  1  0
  7  8  2  0
  8  9  1  0
  9 10  2  0
 10 11  1  0
 11 12  1  0
 11 13  2  0
 13 14  1  0
 14 15  2  0
 14 16  1  0
 16 17  1  0
  4 18  2  0
 18 19  1  0
 19 20  2  0
 20 21  1  0
 21 22  1  0
 22 23  1  0
 20  2  1  0
 16  5  2  0
 13  7  1  0
  1 24  1  0
  1 25  1  0
  1 26  1  0
  3 27  1  0
  8 28  1  0
  9 29  1  0
 10 30  1  0
 12 31  1  0
 17 32  1  0
 18 33  1  0
 19 34  1  0
 21 35  1  0
 21 36  1  0
 22 37  1  0
 22 38  1  0
M  END
>  <meeko>  (5) 
{"is_sidechain": [false], "free_energy": -9.99, "intermolecular_energy": -12.441, "internal_energy": -0.182}

$$$$
cand_047_out
     RDKit          3D

 38 40  0  0  0  0  0  0  0  0999 V2000
   53.6980  156.2590   25.7910 C   0  0  0  0  0  0  0  0  0  0  0  0
   52.9280  155.8590   27.0200 C   0  0  0  0  0  0  0  0  0  0  0  0
   52.2350  156.8540   27.7360 C   0  0  0  0  0  0  0  0  0  0  0  0
   51.5020  156.5530   28.8930 C   0  0  0  0  0  0  0  0  0  0  0  0
   50.7920  157.5990   29.6590 C   0  0  0  0  0  0  0  0  0  0  0  0
   51.6200  158.6490   30.0380 O   0  0  0  0  0  0  0  0  0  0  0  0
   51.0870  159.6890   30.7530 C   0  0  0  0  0  0  0  0  0  0  0  0
   51.9520  160.7290   31.1000 C   0  0  0  0  0  0  0  0  0  0  0  0
   51.4730  161.8190   31.8310 C   0  0  0  0  0  0  0  0  0  0  0  0
   50.1320  161.8680   32.2160 C   0  0  0  0  0  0  0  0  0  0  0  0
   49.2720  160.8300   31.8710 C   0  0  0  0  0  0  0  0  0  0  0  0
   47.9720  160.9410   32.2810 O   0  0  0  0  0  0  0  0  0  0  0  0
   49.7510  159.7400   31.1380 C   0  0  0  0  0  0  0  0  0  0  0  0
   48.8800  158.6270   30.7540 C   0  0  0  0  0  0  0  0  0  0  0  0
   47.6910  158.5940   31.0630 O   0  0  0  0  0  0  0  0  0  0  0  0
   49.4840  157.5240   29.9710 C   0  0  0  0  0  0  0  0  0  0  0  0
   48.6570  156.4720   29.6250 O   0  0  0  0  0  0  0  0  0  0  0  0
   51.4870  155.2300   29.3450 C   0  0  0  0  0  0  0  0  0  0  0  0
   52.1750  154.2310   28.6490 C   0  0  0  0  0  0  0  0  0  0  0  0
   52.9030  154.5320   27.4870 C   0  0  0  0  0  0  0  0  0  0  0  0
   53.6060  153.4040   26.7680 C   0  0  0  0  0  0  0  0  0  0  0  0
   52.7460  152.7980   25.6710 C   0  0  0  0  0  0  0  0  0  0  0  0
   53.3080  153.0900   24.4650 F   0  0  0  0  0  0  0  0  0  0  0  0
   54.6375  156.7471   26.0896 H   0  0  0  0  0  0  0  0  0  0  0  0
   53.9238  155.3642   25.1924 H   0  0  0  0  0  0  0  0  0  0  0  0
   53.0957  156.9582   25.1924 H   0  0  0  0  0  0  0  0  0  0  0  0
   52.2695  157.8938   27.3787 H   0  0  0  0  0  0  0  0  0  0  0  0
   53.0091  160.6900   30.7982 H   0  0  0  0  0  0  0  0  0  0  0  0
   52.1532  162.6394   32.1035 H   0  0  0  0  0  0  0  0  0  0  0  0
   49.7556  162.7265   32.7916 H   0  0  0  0  0  0  0  0  0  0  0  0
   47.3010  161.1470   31.6590 H   0  0  0  0  0  0  0  0  0  0  0  0
   48.6510  156.1510   28.7450 H   0  0  0  0  0  0  0  0  0  0  0  0
   50.9286  154.9724   30.2570 H   0  0  0  0  0  0  0  0  0  0  0  0
   52.1453  153.1949   29.0172 H   0  0  0  0  0  0  0  0  0  0  0  0
   54.5315  153.7929   26.3184 H   0  0  0  0  0  0  0  0  0  0  0  0
   53.8193  152.6152   27.5044 H   0  0  0  0  0  0  0  0  0  0  0  0
   52.6945  151.7069   25.8011 H   0  0  0  0  0  0  0  0  0  0  0  0
   51.7281  153.2120   25.7206 H   0  0  0  0  0  0  0  0  0  0  0  0
  1  2  1  0
  2  3  2  0
  3  4  1  0
  4  5  1  0
  5  6  1  0
  6  7  1  0
  7  8  2  0
  8  9  1  0
  9 10  2  0
 10 11  1  0
 11 12  1  0
 11 13  2  0
 13 14  1  0
 14 15  2  0
 14 16  1  0
 16 17  1  0
  4 18  2  0
 18 19  1  0
 19 20  2  0
 20 21  1  0
 21 22  1  0
 22 23  1  0
 20  2  1  0
 16  5  2  0
 13  7  1  0
  1 24  1  0
  1 25  1  0
  1 26  1  0
  3 27  1  0
  8 28  1  0
  9 29  1  0
 10 30  1  0
 12 31  1  0
 17 32  1  0
 18 33  1  0
 19 34  1  0
 21 35  1  0
 21 36  1  0
 22 37  1  0
 22 38  1  0
M  END
>  <meeko>  (6) 
{"is_sidechain": [false], "free_energy": -8.565, "intermolecular_energy": -10.58, "internal_energy": -0.285}

$$$$
cand_047_out
     RDKit          3D

 38 40  0  0  0  0  0  0  0  0999 V2000
   51.8900  152.9360   28.5610 C   0  0  0  0  0  0  0  0  0  0  0  0
   52.0840  154.4000   28.2690 C   0  0  0  0  0  0  0  0  0  0  0  0
   51.4080  155.3430   29.0670 C   0  0  0  0  0  0  0  0  0  0  0  0
   51.5390  156.7220   28.8470 C   0  0  0  0  0  0  0  0  0  0  0  0
   50.8140  157.7130   29.6700 C   0  0  0  0  0  0  0  0  0  0  0  0
   51.6090  158.7890   30.0470 O   0  0  0  0  0  0  0  0  0  0  0  0
   51.0600  159.7840   30.8120 C   0  0  0  0  0  0  0  0  0  0  0  0
   51.8900  160.8530   31.1550 C   0  0  0  0  0  0  0  0  0  0  0  0
   51.3930  161.8990   31.9350 C   0  0  0  0  0  0  0  0  0  0  0  0
   50.0670  161.8770   32.3740 C   0  0  0  0  0  0  0  0  0  0  0  0
   49.2410  160.8100   32.0320 C   0  0  0  0  0  0  0  0  0  0  0  0
   47.9550  160.8500   32.4950 O   0  0  0  0  0  0  0  0  0  0  0  0
   49.7390  159.7630   31.2500 C   0  0  0  0  0  0  0  0  0  0  0  0
   48.9040  158.6230   30.8680 C   0  0  0  0  0  0  0  0  0  0  0  0
   47.7310  158.5270   31.2210 O   0  0  0  0  0  0  0  0  0  0  0  0
   49.5250  157.5700   30.0300 C   0  0  0  0  0  0  0  0  0  0  0  0
   48.7320  156.4910   29.6860 O   0  0  0  0  0  0  0  0  0  0  0  0
   52.3480  157.1530   27.7920 C   0  0  0  0  0  0  0  0  0  0  0  0
   53.0210  156.2300   26.9860 C   0  0  0  0  0  0  0  0  0  0  0  0
   52.8950  154.8490   27.2100 C   0  0  0  0  0  0  0  0  0  0  0  0
   53.6660  153.9030   26.3190 C   0  0  0  0  0  0  0  0  0  0  0  0
   53.9150  154.4900   24.9390 C   0  0  0  0  0  0  0  0  0  0  0  0
   53.3900  153.6470   24.0060 F   0  0  0  0  0  0  0  0  0  0  0  0
   51.8692  152.7788   29.6495 H   0  0  0  0  0  0  0  0  0  0  0  0
   50.9392  152.5977   28.1234 H   0  0  0  0  0  0  0  0  0  0  0  0
   52.7199  152.3617   28.1234 H   0  0  0  0  0  0  0  0  0  0  0  0
   50.7610  154.9893   29.8833 H   0  0  0  0  0  0  0  0  0  0  0  0
   52.9347  160.8711   30.8110 H   0  0  0  0  0  0  0  0  0  0  0  0
   52.0466  162.7418   32.2043 H   0  0  0  0  0  0  0  0  0  0  0  0
   49.6763  162.7013   32.9888 H   0  0  0  0  0  0  0  0  0  0  0  0
   47.6000  160.1130   32.9540 H   0  0  0  0  0  0  0  0  0  0  0  0
   49.1280  155.6710   29.4650 H   0  0  0  0  0  0  0  0  0  0  0  0
   52.4563  158.2296   27.5938 H   0  0  0  0  0  0  0  0  0  0  0  0
   53.6582  156.5903   26.1649 H   0  0  0  0  0  0  0  0  0  0  0  0
   54.6351  153.6826   26.7905 H   0  0  0  0  0  0  0  0  0  0  0  0
   53.0650  152.9901   26.1947 H   0  0  0  0  0  0  0  0  0  0  0  0
   53.4310  155.4748   24.8625 H   0  0  0  0  0  0  0  0  0  0  0  0
   54.9955  154.6096   24.7712 H   0  0  0  0  0  0  0  0  0  0  0  0
  1  2  1  0
  2  3  2  0
  3  4  1  0
  4  5  1  0
  5  6  1  0
  6  7  1  0
  7  8  2  0
  8  9  1  0
  9 10  2  0
 10 11  1  0
 11 12  1  0
 11 13  2  0
 13 14  1  0
 14 15  2  0
 14 16  1  0
 16 17  1  0
  4 18  2  0
 18 19  1  0
 19 20  2  0
 20 21  1  0
 21 22  1  0
 22 23  1  0
 20  2  1  0
 16  5  2  0
 13  7  1  0
  1 24  1  0
  1 25  1  0
  1 26  1  0
  3 27  1  0
  8 28  1  0
  9 29  1  0
 10 30  1  0
 12 31  1  0
 17 32  1  0
 18 33  1  0
 19 34  1  0
 21 35  1  0
 21 36  1  0
 22 37  1  0
 22 38  1  0
M  END
>  <meeko>  (7) 
{"is_sidechain": [false], "free_energy": -8.301, "intermolecular_energy": -10.425, "internal_energy": -0.114}

$$$$
