cand_011_out
     RDKit          3D

 35 37  0  0  0  0  0  0  0  0999 V2000
   50.2740  161.3320   31.5580 C   0  0  0  0  0  0  0  0  0  0  0  0
   50.6830  160.0880   30.8150 C   0  0  0  0  0  0  0  0  0  0  0  0
   52.0230  159.9290   30.4330 C   0  0  0  0  0  0  0  0  0  0  0  0
   52.4390  158.7870   29.7460 C   0  0  0  0  0  0  0  0  0  0  0  0
   51.5310  157.7750   29.4180 C   0  0  0  0  0  0  0  0  0  0  0  0
   51.9980  156.5660   28.7070 C   0  0  0  0  0  0  0  0  0  0  0  0
   52.5380  156.8480   27.4580 O   0  0  0  0  0  0  0  0  0  0  0  0
   53.0090  155.8130   26.6910 C   0  0  0  0  0  0  0  0  0  0  0  0
   53.5550  156.1420   25.4490 C   0  0  0  0  0  0  0  0  0  0  0  0
   54.0530  155.1360   24.6180 C   0  0  0  0  0  0  0  0  0  0  0  0
   54.0040  153.8010   25.0290 C   0  0  0  0  0  0  0  0  0  0  0  0
   53.4590  153.4760   26.2680 C   0  0  0  0  0  0  0  0  0  0  0  0
   53.4410  152.1510   26.6060 O   0  0  0  0  0  0  0  0  0  0  0  0
   52.9610  154.4840   27.0990 C   0  0  0  0  0  0  0  0  0  0  0  0
   52.3800  154.1840   28.4080 C   0  0  0  0  0  0  0  0  0  0  0  0
   52.2940  153.0350   28.8370 O   0  0  0  0  0  0  0  0  0  0  0  0
   51.8900  155.3250   29.2160 C   0  0  0  0  0  0  0  0  0  0  0  0
   51.3300  155.0330   30.4460 O   0  0  0  0  0  0  0  0  0  0  0  0
   50.1940  157.9260   29.8150 C   0  0  0  0  0  0  0  0  0  0  0  0
   49.7530  159.0720   30.5100 C   0  0  0  0  0  0  0  0  0  0  0  0
   48.2960  159.1830   30.9040 C   0  0  0  0  0  0  0  0  0  0  0  0
   48.0670  158.7760   32.1840 F   0  0  0  0  0  0  0  0  0  0  0  0
   47.8010  160.4510   30.8270 F   0  0  0  0  0  0  0  0  0  0  0  0
   47.4780  158.4260   30.1190 F   0  0  0  0  0  0  0  0  0  0  0  0
   50.3342  161.1488   32.6410 H   0  0  0  0  0  0  0  0  0  0  0  0
   50.9477  162.1586   31.2879 H   0  0  0  0  0  0  0  0  0  0  0  0
   49.2413  161.5975   31.2879 H   0  0  0  0  0  0  0  0  0  0  0  0
   52.7547  160.7131   30.6775 H   0  0  0  0  0  0  0  0  0  0  0  0
   53.4956  158.6817   29.4587 H   0  0  0  0  0  0  0  0  0  0  0  0
   53.5930  157.1926   25.1252 H   0  0  0  0  0  0  0  0  0  0  0  0
   54.4840  155.3945   23.6395 H   0  0  0  0  0  0  0  0  0  0  0  0
   54.3955  153.0084   24.3744 H   0  0  0  0  0  0  0  0  0  0  0  0
   53.6250  151.5000   25.9570 H   0  0  0  0  0  0  0  0  0  0  0  0
   50.8320  155.6840   30.9000 H   0  0  0  0  0  0  0  0  0  0  0  0
   49.4714  157.1311   29.5786 H   0  0  0  0  0  0  0  0  0  0  0  0
  1  2  1  0
  2  3  2  0
  3  4  1  0
  4  5  2  0
  5  6  1  0
  6  7  1  0
  7  8  1  0
  8  9  2  0
  9 10  1  0
 10 11  2  0
 11 12  1  0
 12 13  1  0
 12 14  2  0
 14 15  1  0
 15 16  2  0
 15 17  1  0
 17 18  1  0
  5 19  1  0
 19 20  2  0
 20 21  1  0
 21 22  1  0
 21 23  1  0
 21 24  1  0
 20  2  1  0
 17  6  2  0
 14  8  1  0
  1 25  1  0
  1 26  1  0
  1 27  1  0
  3 28  1  0
  4 29  1  0
  9 30  1  0
 10 31  1  0
 11 32  1  0
 13 33  1  0
 18 34  1  0
 19 35  1  0
M  END
>  <meeko>  (1) 
{"is_sidechain": [false], "free_energy": -11.555, "intermolecular_energy": -13.582, "internal_energy": -0.097}

$$$$
cand_011_out
     RDKit          3D

 35 37  0  0  0  0  0  0  0  0999 V2000
   52.9430  152.6290   26.7250 C   0  0  0  0  0  0  0  0  0  0  0  0
   52.5360  153.9140   27.3950 C   0  0  0  0  0  0  0  0  0  0  0  0
   51.9630  153.8670   28.6740 C   0  0  0  0  0  0  0  0  0  0  0  0
   51.5770  155.0390   29.3280 C   0  0  0  0  0  0  0  0  0  0  0  0
   51.7480  156.2880   28.7240 C   0  0  0  0  0  0  0  0  0  0  0  0
   51.3490  157.5160   29.4430 C   0  0  0  0  0  0  0  0  0  0  0  0
   50.0140  157.5060   29.8310 O   0  0  0  0  0  0  0  0  0  0  0  0
   49.5130  158.5890   30.5080 C   0  0  0  0  0  0  0  0  0  0  0  0
   48.1720  158.5310   30.8920 C   0  0  0  0  0  0  0  0  0  0  0  0
   47.5990  159.6010   31.5840 C   0  0  0  0  0  0  0  0  0  0  0  0
   48.3660  160.7270   31.8910 C   0  0  0  0  0  0  0  0  0  0  0  0
   49.7030  160.7820   31.5080 C   0  0  0  0  0  0  0  0  0  0  0  0
   50.3950  161.9140   31.8390 O   0  0  0  0  0  0  0  0  0  0  0  0
   50.2770  159.7110   30.8160 C   0  0  0  0  0  0  0  0  0  0  0  0
   51.6780  159.7290   30.3940 C   0  0  0  0  0  0  0  0  0  0  0  0
   52.4160  160.6860   30.6200 O   0  0  0  0  0  0  0  0  0  0  0  0
   52.1910  158.5400   29.6740 C   0  0  0  0  0  0  0  0  0  0  0  0
   53.5120  158.5700   29.2680 O   0  0  0  0  0  0  0  0  0  0  0  0
   52.3360  156.3370   27.4510 C   0  0  0  0  0  0  0  0  0  0  0  0
   52.7340  155.1660   26.7730 C   0  0  0  0  0  0  0  0  0  0  0  0
   53.3550  155.2810   25.3980 C   0  0  0  0  0  0  0  0  0  0  0  0
   53.4260  156.5700   24.9620 F   0  0  0  0  0  0  0  0  0  0  0  0
   54.6280  154.7990   25.3280 F   0  0  0  0  0  0  0  0  0  0  0  0
   52.6560  154.6020   24.4450 F   0  0  0  0  0  0  0  0  0  0  0  0
   53.1815  151.8759   27.4905 H   0  0  0  0  0  0  0  0  0  0  0  0
   52.1162  152.2648   26.0974 H   0  0  0  0  0  0  0  0  0  0  0  0
   53.8287  152.8072   26.0974 H   0  0  0  0  0  0  0  0  0  0  0  0
   51.8158  152.8953   29.1681 H   0  0  0  0  0  0  0  0  0  0  0  0
   51.1323  154.9785   30.3323 H   0  0  0  0  0  0  0  0  0  0  0  0
   47.5675  157.6444   30.6501 H   0  0  0  0  0  0  0  0  0  0  0  0
   46.5426  159.5565   31.8873 H   0  0  0  0  0  0  0  0  0  0  0  0
   47.9140  161.5695   32.4349 H   0  0  0  0  0  0  0  0  0  0  0  0
   49.9590  162.6170   32.2810 H   0  0  0  0  0  0  0  0  0  0  0  0
   53.7270  158.8260   28.3930 H   0  0  0  0  0  0  0  0  0  0  0  0
   52.4906  157.3138   26.9694 H   0  0  0  0  0  0  0  0  0  0  0  0
  1  2  1  0
  2  3  2  0
  3  4  1  0
  4  5  2  0
  5  6  1  0
  6  7  1  0
  7  8  1  0
  8  9  2  0
  9 10  1  0
 10 11  2  0
 11 12  1  0
 12 13  1  0
 12 14  2  0
 14 15  1  0
 15 16  2  0
 15 17  1  0
 17 18  1  0
  5 19  1  0
 19 20  2  0
 20 21  1  0
 21 22  1  0
 21 23  1  0
 21 24  1  0
 20  2  1  0
 17  6  2  0
 14  8  1  0
  1 25  1  0
  1 26  1  0
  1 27  1  0
  3 28  1  0
  4 29  1  0
  9 30  1  0
 10 31  1  0
 11 32  1  0
 13 33  1  0
 18 34  1  0
 19 35  1  0
M  END
>  <meeko>  (2) 
{"is_sidechain": [false], "free_energy": -11.388, "intermolecular_energy": -13.254, "internal_energy": -0.229}

$$$$
cand_011_out
     RDKit          3D

 35 37  0  0  0  0  0  0  0  0999 V2000
   48.6980  159.8900   31.5650 C   0  0  0  0  0  0  0  0  0  0  0  0
   49.5330  158.9080   30.7870 C   0  0  0  0  0  0  0  0  0  0  0  0
   48.9820  157.6670   30.4390 C   0  0  0  0  0  0  0  0  0  0  0  0
   49.7250  156.7330   29.7140 C   0  0  0  0  0  0  0  0  0  0  0  0
   51.0380  157.0100   29.3190 C   0  0  0  0  0  0  0  0  0  0  0  0
   51.7980  156.0140   28.5360 C   0  0  0  0  0  0  0  0  0  0  0  0
   52.3000  156.5290   27.3470 O   0  0  0  0  0  0  0  0  0  0  0  0
   53.0260  155.7060   26.5230 C   0  0  0  0  0  0  0  0  0  0  0  0
   53.5240  156.2670   25.3460 C   0  0  0  0  0  0  0  0  0  0  0  0
   54.2710  155.4850   24.4630 C   0  0  0  0  0  0  0  0  0  0  0  0
   54.5190  154.1420   24.7560 C   0  0  0  0  0  0  0  0  0  0  0  0
   54.0220  153.5850   25.9310 C   0  0  0  0  0  0  0  0  0  0  0  0
   54.3010  152.2640   26.1550 O   0  0  0  0  0  0  0  0  0  0  0  0
   53.2750  154.3680   26.8150 C   0  0  0  0  0  0  0  0  0  0  0  0
   52.7340  153.8210   28.0600 C   0  0  0  0  0  0  0  0  0  0  0  0
   52.9030  152.6480   28.3850 O   0  0  0  0  0  0  0  0  0  0  0  0
   51.9640  154.7380   28.9320 C   0  0  0  0  0  0  0  0  0  0  0  0
   51.4450  154.2110   30.1000 O   0  0  0  0  0  0  0  0  0  0  0  0
   51.5830  158.2590   29.6530 C   0  0  0  0  0  0  0  0  0  0  0  0
   50.8500  159.2160   30.3840 C   0  0  0  0  0  0  0  0  0  0  0  0
   51.4950  160.5430   30.7220 C   0  0  0  0  0  0  0  0  0  0  0  0
   50.8600  161.5980   30.1370 F   0  0  0  0  0  0  0  0  0  0  0  0
   51.5150  160.8200   32.0560 F   0  0  0  0  0  0  0  0  0  0  0  0
   52.7940  160.6160   30.3160 F   0  0  0  0  0  0  0  0  0  0  0  0
   48.8418  159.7209   32.6424 H   0  0  0  0  0  0  0  0  0  0  0  0
   49.0053  160.9151   31.3105 H   0  0  0  0  0  0  0  0  0  0  0  0
   47.6368  159.7515   31.3105 H   0  0  0  0  0  0  0  0  0  0  0  0
   47.9520  157.4260   30.7406 H   0  0  0  0  0  0  0  0  0  0  0  0
   49.2716  155.7662   29.4499 H   0  0  0  0  0  0  0  0  0  0  0  0
   53.3281  157.3243   25.1143 H   0  0  0  0  0  0  0  0  0  0  0  0
   54.6646  155.9269   23.5357 H   0  0  0  0  0  0  0  0  0  0  0  0
   55.1061  153.5255   24.0594 H   0  0  0  0  0  0  0  0  0  0  0  0
   53.8880  151.8120   26.8640 H   0  0  0  0  0  0  0  0  0  0  0  0
   50.5710  153.8720   30.1140 H   0  0  0  0  0  0  0  0  0  0  0  0
   52.6090  158.4977   29.3362 H   0  0  0  0  0  0  0  0  0  0  0  0
  1  2  1  0
  2  3  2  0
  3  4  1  0
  4  5  2  0
  5  6  1  0
  6  7  1  0
  7  8  1  0
  8  9  2  0
  9 10  1  0
 10 11  2  0
 11 12  1  0
 12 13  1  0
 12 14  2  0
 14 15  1  0
 15 16  2  0
 15 17  1  0
 17 18  1  0
  5 19  1  0
 19 20  2  0
 20 21  1  0
 21 22  1  0
 21 23  1  0
 21 24  1  0
 20  2  1  0
 17  6  2  0
 14  8  1  0
  1 25  1  0
  1 26  1  0
  1 27  1  0
  3 28  1  0
  4 29  1  0
  9 30  1  0
 10 31  1  0
 11 32  1  0
 13 33  1  0
 18 34  1  0
 19 35  1  0
M  END
>  <meeko>  (3) 
{"is_sidechain": [false], "free_energy": -10.868, "intermolecular_energy": -12.666, "internal_energy": -0.205}

$$$$
cand_011_out
     RDKit          3D

 35 37  0  0  0  0  0  0  0  0999 V2000
   53.6380  152.6590   26.5220 C   0  0  0  0  0  0  0  0  0  0  0  0
   52.9580  153.8120   27.2110 C   0  0  0  0  0  0  0  0  0  0  0  0
   52.3850  153.6130   28.4750 C   0  0  0  0  0  0  0  0  0  0  0  0
   51.7500  154.6600   29.1450 C   0  0  0  0  0  0  0  0  0  0  0  0
   51.6660  155.9330   28.5730 C   0  0  0  0  0  0  0  0  0  0  0  0
   51.0060  157.0310   29.3100 C   0  0  0  0  0  0  0  0  0  0  0  0
   51.8640  158.0880   29.5910 O   0  0  0  0  0  0  0  0  0  0  0  0
   51.3770  159.1740   30.2730 C   0  0  0  0  0  0  0  0  0  0  0  0
   52.2680  160.2180   30.5220 C   0  0  0  0  0  0  0  0  0  0  0  0
   51.8370  161.3530   31.2130 C   0  0  0  0  0  0  0  0  0  0  0  0
   50.5150  161.4420   31.6550 C   0  0  0  0  0  0  0  0  0  0  0  0
   49.6270  160.3990   31.4050 C   0  0  0  0  0  0  0  0  0  0  0  0
   48.3490  160.5520   31.8670 O   0  0  0  0  0  0  0  0  0  0  0  0
   50.0590  159.2640   30.7130 C   0  0  0  0  0  0  0  0  0  0  0  0
   49.1590  158.1460   30.4300 C   0  0  0  0  0  0  0  0  0  0  0  0
   47.9840  158.1460   30.7930 O   0  0  0  0  0  0  0  0  0  0  0  0
   49.7130  156.9930   29.6830 C   0  0  0  0  0  0  0  0  0  0  0  0
   48.8600  155.9350   29.4310 O   0  0  0  0  0  0  0  0  0  0  0  0
   52.2540  156.1380   27.3160 C   0  0  0  0  0  0  0  0  0  0  0  0
   52.9010  155.0940   26.6220 C   0  0  0  0  0  0  0  0  0  0  0  0
   53.5100  155.3730   25.2650 C   0  0  0  0  0  0  0  0  0  0  0  0
   53.3450  156.6680   24.8730 F   0  0  0  0  0  0  0  0  0  0  0  0
   54.8520  155.1390   25.2060 F   0  0  0  0  0  0  0  0  0  0  0  0
   52.9650  154.6100   24.2750 F   0  0  0  0  0  0  0  0  0  0  0  0
   54.0447  151.9694   27.2763 H   0  0  0  0  0  0  0  0  0  0  0  0
   52.9094  152.1263   25.8931 H   0  0  0  0  0  0  0  0  0  0  0  0
   54.4567  153.0389   25.8931 H   0  0  0  0  0  0  0  0  0  0  0  0
   52.4365  152.6196   28.9445 H   0  0  0  0  0  0  0  0  0  0  0  0
   51.3095  154.4810   30.1369 H   0  0  0  0  0  0  0  0  0  0  0  0
   53.3093  160.1476   30.1745 H   0  0  0  0  0  0  0  0  0  0  0  0
   52.5390  162.1769   31.4091 H   0  0  0  0  0  0  0  0  0  0  0  0
   50.1757  162.3352   32.2001 H   0  0  0  0  0  0  0  0  0  0  0  0
   47.6840  160.8900   31.3000 H   0  0  0  0  0  0  0  0  0  0  0  0
   47.9550  155.9970   29.6670 H   0  0  0  0  0  0  0  0  0  0  0  0
   52.2095  157.1380   26.8600 H   0  0  0  0  0  0  0  0  0  0  0  0
  1  2  1  0
  2  3  2  0
  3  4  1  0
  4  5  2  0
  5  6  1  0
  6  7  1  0
  7  8  1  0
  8  9  2  0
  9 10  1  0
 10 11  2  0
 11 12  1  0
 12 13  1  0
 12 14  2  0
 14 15  1  0
 15 16  2  0
 15 17  1  0
 17 18  1  0
  5 19  1  0
 19 20  2  0
 20 21  1  0
 21 22  1  0
 21 23  1  0
 21 24  1  0
 20  2  1  0
 17  6  2  0
 14  8  1  0
  1 25  1  0
  1 26  1  0
  1 27  1  0
  3 28  1  0
  4 29  1  0
  9 30  1  0
 10 31  1  0
 11 32  1  0
 13 33  1  0
 18 34  1  0
 19 35  1  0
M  END
>  <meeko>  (4) 
{"is_sidechain": [false], "free_energy": -9.58, "intermolecular_energy": -11.077, "internal_energy": -0.281}

$$$$
cand_011_out
     RDKit          3D

 35 37  0  0  0  0  0  0  0  0999 V2000
   53.3630  154.3900   26.2970 C   0  0  0  0  0  0  0  0  0  0  0  0
   52.8150  155.4250   27.2430 C   0  0  0  0  0  0  0  0  0  0  0  0
   52.9790  156.7840   26.9400 C   0  0  0  0  0  0  0  0  0  0  0  0
   52.4810  157.7720   27.7910 C   0  0  0  0  0  0  0  0  0  0  0  0
   51.8060  157.4310   28.9680 C   0  0  0  0  0  0  0  0  0  0  0  0
   51.2700  158.4940   29.8450 C   0  0  0  0  0  0  0  0  0  0  0  0
   49.9320  158.3050   30.1680 O   0  0  0  0  0  0  0  0  0  0  0  0
   49.3100  159.2230   30.9770 C   0  0  0  0  0  0  0  0  0  0  0  0
   47.9700  158.9870   31.2890 C   0  0  0  0  0  0  0  0  0  0  0  0
   47.2770  159.8820   32.1070 C   0  0  0  0  0  0  0  0  0  0  0  0
   47.9240  161.0130   32.6110 C   0  0  0  0  0  0  0  0  0  0  0  0
   49.2600  161.2460   32.2990 C   0  0  0  0  0  0  0  0  0  0  0  0
   49.8310  162.3720   32.8250 O   0  0  0  0  0  0  0  0  0  0  0  0
   49.9540  160.3490   31.4810 C   0  0  0  0  0  0  0  0  0  0  0  0
   51.3590  160.5570   31.1280 C   0  0  0  0  0  0  0  0  0  0  0  0
   51.9940  161.5310   31.5260 O   0  0  0  0  0  0  0  0  0  0  0  0
   52.0040  159.5430   30.2620 C   0  0  0  0  0  0  0  0  0  0  0  0
   53.3270  159.7530   29.9230 O   0  0  0  0  0  0  0  0  0  0  0  0
   51.6260  156.0720   29.2630 C   0  0  0  0  0  0  0  0  0  0  0  0
   52.1220  155.0580   28.4160 C   0  0  0  0  0  0  0  0  0  0  0  0
   51.9040  153.6090   28.7910 C   0  0  0  0  0  0  0  0  0  0  0  0
   51.3220  153.4660   30.0150 F   0  0  0  0  0  0  0  0  0  0  0  0
   51.1020  152.9310   27.9220 F   0  0  0  0  0  0  0  0  0  0  0  0
   53.0660  152.8970   28.8440 F   0  0  0  0  0  0  0  0  0  0  0  0
   53.8014  153.5620   26.8734 H   0  0  0  0  0  0  0  0  0  0  0  0
   52.5502  154.0056   25.6632 H   0  0  0  0  0  0  0  0  0  0  0  0
   54.1378  154.8461   25.6632 H   0  0  0  0  0  0  0  0  0  0  0  0
   53.5068  157.0754   26.0199 H   0  0  0  0  0  0  0  0  0  0  0  0
   52.6210  158.8321   27.5329 H   0  0  0  0  0  0  0  0  0  0  0  0
   47.4605  158.0971   30.8910 H   0  0  0  0  0  0  0  0  0  0  0  0
   46.2214  159.6964   32.3545 H   0  0  0  0  0  0  0  0  0  0  0  0
   47.3778  161.7188   33.2540 H   0  0  0  0  0  0  0  0  0  0  0  0
   50.4640  162.8520   32.3290 H   0  0  0  0  0  0  0  0  0  0  0  0
   54.0010  159.6170   30.5590 H   0  0  0  0  0  0  0  0  0  0  0  0
   51.0845  155.7891   30.1777 H   0  0  0  0  0  0  0  0  0  0  0  0
  1  2  1  0
  2  3  2  0
  3  4  1  0
  4  5  2  0
  5  6  1  0
  6  7  1  0
  7  8  1  0
  8  9  2  0
  9 10  1  0
 10 11  2  0
 11 12  1  0
 12 13  1  0
 12 14  2  0
 14 15  1  0
 15 16  2  0
 15 17  1  0
 17 18  1  0
  5 19  1  0
 19 20  2  0
 20 21  1  0
 21 22  1  0
 21 23  1  0
 21 24  1  0
 20  2  1  0
 17  6  2  0
 14  8  1  0
  1 25  1  0
  1 26  1  0
  1 27  1  0
  3 28  1  0
  4 29  1  0
  9 30  1  0
 10 31  1  0
 11 32  1  0
 13 33  1  0
 18 34  1  0
 19 35  1  0
M  END
>  <meeko>  (5) 
{"is_sidechain": [false], "free_energy": -9.52, "intermolecular_energy": -11.134, "internal_energy": -0.152}

$$$$
