cand_023_out
     RDKit          3D

 47 50  0  0  0  0  0  0  0  0999 V2000
   52.4520  160.6520   30.4380 C   0  0  0  0  0  0  0  0  0  0  0  0
   51.6510  159.4030   30.1860 C   0  0  0  0  0  0  0  0  0  0  0  0
   52.2110  158.3640   29.4220 C   0  0  0  0  0  0  0  0  0  0  0  0
   51.5030  157.1800   29.1650 C   0  0  0  0  0  0  0  0  0  0  0  0
   52.1140  156.1210   28.3350 C   0  0  0  0  0  0  0  0  0  0  0  0
   52.7190  156.6170   27.1860 O   0  0  0  0  0  0  0  0  0  0  0  0
   53.3280  155.7420   26.3250 C   0  0  0  0  0  0  0  0  0  0  0  0
   53.9110  156.2830   25.1770 C   0  0  0  0  0  0  0  0  0  0  0  0
   54.5490  155.4460   24.2600 C   0  0  0  0  0  0  0  0  0  0  0  0
   54.6050  154.0690   24.4880 C   0  0  0  0  0  0  0  0  0  0  0  0
   54.0220  153.5320   25.6330 C   0  0  0  0  0  0  0  0  0  0  0  0
   54.1130  152.1760   25.7950 O   0  0  0  0  0  0  0  0  0  0  0  0
   53.3830  154.3700   26.5510 C   0  0  0  0  0  0  0  0  0  0  0  0
   52.7590  153.8470   27.7670 C   0  0  0  0  0  0  0  0  0  0  0  0
   52.7720  152.6480   28.0410 O   0  0  0  0  0  0  0  0  0  0  0  0
   52.1020  154.8170   28.6720 C   0  0  0  0  0  0  0  0  0  0  0  0
   51.5270  154.3130   29.8250 O   0  0  0  0  0  0  0  0  0  0  0  0
   50.2080  157.0580   29.6790 C   0  0  0  0  0  0  0  0  0  0  0  0
   49.6420  158.0840   30.4430 C   0  0  0  0  0  0  0  0  0  0  0  0
   50.3490  159.2680   30.7050 C   0  0  0  0  0  0  0  0  0  0  0  0
   49.8060  160.3120   31.4840 N   0  0  0  0  0  0  0  0  0  0  0  0
   48.6460  160.9670   30.8600 C   0  0  0  0  0  0  0  0  0  0  0  0
   48.2900  162.2200   31.6630 C   0  0  0  0  0  0  0  0  0  0  0  0
   48.0430  161.8790   33.1310 C   0  0  0  0  0  0  0  0  0  0  0  0
   49.2240  161.1090   33.7210 C   0  0  0  0  0  0  0  0  0  0  0  0
   49.5670  159.8850   32.8720 C   0  0  0  0  0  0  0  0  0  0  0  0
   52.5534  160.8101   31.5218 H   0  0  0  0  0  0  0  0  0  0  0  0
   53.4500  160.5445   29.9882 H   0  0  0  0  0  0  0  0  0  0  0  0
   51.9380  161.5142   29.9882 H   0  0  0  0  0  0  0  0  0  0  0  0
   53.2268  158.4819   29.0167 H   0  0  0  0  0  0  0  0  0  0  0  0
   53.8675  157.3671   24.9957 H   0  0  0  0  0  0  0  0  0  0  0  0
   55.0087  155.8717   23.3559 H   0  0  0  0  0  0  0  0  0  0  0  0
   55.1084  153.4104   23.7649 H   0  0  0  0  0  0  0  0  0  0  0  0
   53.3770  151.6920   26.1110 H   0  0  0  0  0  0  0  0  0  0  0  0
   52.0050  153.7120   30.3620 H   0  0  0  0  0  0  0  0  0  0  0  0
   49.6279  156.1448   29.4802 H   0  0  0  0  0  0  0  0  0  0  0  0
   48.6256  157.9609   30.8453 H   0  0  0  0  0  0  0  0  0  0  0  0
   48.8939  161.2495   29.8262 H   0  0  0  0  0  0  0  0  0  0  0  0
   47.7900  160.2763   30.8500 H   0  0  0  0  0  0  0  0  0  0  0  0
   49.1205  162.9382   31.5956 H   0  0  0  0  0  0  0  0  0  0  0  0
   47.3697  162.6538   31.2449 H   0  0  0  0  0  0  0  0  0  0  0  0
   47.9020  162.8110   33.6979 H   0  0  0  0  0  0  0  0  0  0  0  0
   47.1447  161.2476   33.1976 H   0  0  0  0  0  0  0  0  0  0  0  0
   50.0999  161.7730   33.7631 H   0  0  0  0  0  0  0  0  0  0  0  0
   48.9472  160.7666   34.7290 H   0  0  0  0  0  0  0  0  0  0  0  0
   50.4721  159.4029   33.2699 H   0  0  0  0  0  0  0  0  0  0  0  0
   48.7323  159.1691   32.9005 H   0  0  0  0  0  0  0  0  0  0  0  0
  1  2  1  0
  2  3  2  0
  3  4  1  0
  4  5  1  0
  5  6  1  0
  6  7  1  0
  7  8  2  0
  8  9  1  0
  9 10  2  0
 10 11  1  0
 11 12  1  0
 11 13  2  0
 13 14  1  0
 14 15  2  0
 14 16  1  0
 16 17  1  0
  4 18  2  0
 18 19  1  0
 19 20  2  0
 20 21  1  0
 21 22  1  0
 22 23  1  0
 23 24  1  0
 24 25  1  0
 25 26  1  0
 20  2  1  0
 26 21  1  0
 16  5  2  0
 13  7  1  0
  1 27  1  0
  1 28  1  0
  1 29  1  0
  3 30  1  0
  8 31  1  0
  9 32  1  0
 10 33  1  0
 12 34  1  0
 17 35  1  0
 18 36  1  0
 19 37  1  0
 22 38  1  0
 22 39  1  0
 23 40  1  0
 23 41  1  0
 24 42  1  0
 24 43  1  0
 25 44  1  0
 25 45  1  0
 26 46  1  0
 26 47  1  0
M  END
>  <meeko>  (1) 
{"is_sidechain": [false], "free_energy": -11.317, "intermolecular_energy": -13.302, "internal_energy": -0.453}

$$$$
cand_023_out
     RDKit          3D

 47 50  0  0  0  0  0  0  0  0999 V2000
   51.9930  153.2910   29.0350 C   0  0  0  0  0  0  0  0  0  0  0  0
   52.2090  154.6970   28.5430 C   0  0  0  0  0  0  0  0  0  0  0  0
   51.7260  155.7780   29.3030 C   0  0  0  0  0  0  0  0  0  0  0  0
   51.9090  157.1060   28.8860 C   0  0  0  0  0  0  0  0  0  0  0  0
   51.3640  158.2140   29.6970 C   0  0  0  0  0  0  0  0  0  0  0  0
   50.0230  158.0400   30.0190 O   0  0  0  0  0  0  0  0  0  0  0  0
   49.3900  158.9940   30.7710 C   0  0  0  0  0  0  0  0  0  0  0  0
   48.0400  158.7850   31.0580 C   0  0  0  0  0  0  0  0  0  0  0  0
   47.3370  159.7190   31.8220 C   0  0  0  0  0  0  0  0  0  0  0  0
   47.9820  160.8620   32.2980 C   0  0  0  0  0  0  0  0  0  0  0  0
   49.3290  161.0700   32.0100 C   0  0  0  0  0  0  0  0  0  0  0  0
   49.8990  162.2100   32.5070 O   0  0  0  0  0  0  0  0  0  0  0  0
   50.0320  160.1350   31.2450 C   0  0  0  0  0  0  0  0  0  0  0  0
   51.4480  160.3130   30.9200 C   0  0  0  0  0  0  0  0  0  0  0  0
   52.0860  161.2900   31.3080 O   0  0  0  0  0  0  0  0  0  0  0  0
   52.0990  159.2680   30.0980 C   0  0  0  0  0  0  0  0  0  0  0  0
   53.4410  159.4420   29.8080 O   0  0  0  0  0  0  0  0  0  0  0  0
   52.5760  157.3350   27.6780 C   0  0  0  0  0  0  0  0  0  0  0  0
   53.0630  156.2670   26.9160 C   0  0  0  0  0  0  0  0  0  0  0  0
   52.8850  154.9390   27.3320 C   0  0  0  0  0  0  0  0  0  0  0  0
   53.3790  153.8450   26.5890 N   0  0  0  0  0  0  0  0  0  0  0  0
   52.3610  152.8200   26.3080 C   0  0  0  0  0  0  0  0  0  0  0  0
   53.0470  151.5870   25.7170 C   0  0  0  0  0  0  0  0  0  0  0  0
   53.8590  151.9530   24.4750 C   0  0  0  0  0  0  0  0  0  0  0  0
   54.8340  153.0910   24.7750 C   0  0  0  0  0  0  0  0  0  0  0  0
   54.1150  154.2890   25.3940 C   0  0  0  0  0  0  0  0  0  0  0  0
   51.9919  153.2836   30.1350 H   0  0  0  0  0  0  0  0  0  0  0  0
   51.0269  152.9173   28.6648 H   0  0  0  0  0  0  0  0  0  0  0  0
   52.8024  152.6446   28.6648 H   0  0  0  0  0  0  0  0  0  0  0  0
   51.1934  155.5783   30.2445 H   0  0  0  0  0  0  0  0  0  0  0  0
   47.5303  157.8854   30.6827 H   0  0  0  0  0  0  0  0  0  0  0  0
   46.2734  159.5538   32.0491 H   0  0  0  0  0  0  0  0  0  0  0  0
   47.4274  161.5972   32.8996 H   0  0  0  0  0  0  0  0  0  0  0  0
   49.8740  162.3820   33.4270 H   0  0  0  0  0  0  0  0  0  0  0  0
   54.0920  159.0650   30.3660 H   0  0  0  0  0  0  0  0  0  0  0  0
   52.7194  158.3662   27.3230 H   0  0  0  0  0  0  0  0  0  0  0  0
   53.5943  156.4722   25.9750 H   0  0  0  0  0  0  0  0  0  0  0  0
   51.8472  152.5448   27.2409 H   0  0  0  0  0  0  0  0  0  0  0  0
   51.6237  153.2141   25.5931 H   0  0  0  0  0  0  0  0  0  0  0  0
   53.7199  151.1537   26.4716 H   0  0  0  0  0  0  0  0  0  0  0  0
   52.2730  150.8610   25.4276 H   0  0  0  0  0  0  0  0  0  0  0  0
   54.4264  151.0710   24.1432 H   0  0  0  0  0  0  0  0  0  0  0  0
   53.1658  152.2834   23.6874 H   0  0  0  0  0  0  0  0  0  0  0  0
   55.6001  152.7308   25.4773 H   0  0  0  0  0  0  0  0  0  0  0  0
   55.2940  153.4128   23.8290 H   0  0  0  0  0  0  0  0  0  0  0  0
   54.8523  155.0541   25.6787 H   0  0  0  0  0  0  0  0  0  0  0  0
   53.4122  154.7168   24.6639 H   0  0  0  0  0  0  0  0  0  0  0  0
  1  2  1  0
  2  3  2  0
  3  4  1  0
  4  5  1  0
  5  6  1  0
  6  7  1  0
  7  8  2  0
  8  9  1  0
  9 10  2  0
 10 11  1  0
 11 12  1  0
 11 13  2  0
 13 14  1  0
 14 15  2  0
 14 16  1  0
 16 17  1  0
  4 18  2  0
 18 19  1  0
 19 20  2  0
 20 21  1  0
 21 22  1  0
 22 23  1  0
 23 24  1  0
 24 25  1  0
 25 26  1  0
 20  2  1  0
 26 21  1  0
 16  5  2  0
 13  7  1  0
  1 27  1  0
  1 28  1  0
  1 29  1  0
  3 30  1  0
  8 31  1  0
  9 32  1  0
 10 33  1  0
 12 34  1  0
 17 35  1  0
 18 36  1  0
 19 37  1  0
 22 38  1  0
 22 39  1  0
 23 40  1  0
 23 41  1  0
 24 42  1  0
 24 43  1  0
 25 44  1  0
 25 45  1  0
 26 46  1  0
 26 47  1  0
M  END
>  <meeko>  (2) 
{"is_sidechain": [false], "free_energy": -10.357, "intermolecular_energy": -12.963, "internal_energy": 0.337}

$$$$
cand_023_out
     RDKit          3D

 47 50  0  0  0  0  0  0  0  0999 V2000
   48.3400  158.2240   30.8960 C   0  0  0  0  0  0  0  0  0  0  0  0
   49.7570  158.2860   30.3920 C   0  0  0  0  0  0  0  0  0  0  0  0
   50.2720  157.2140   29.6410 C   0  0  0  0  0  0  0  0  0  0  0  0
   51.5850  157.2310   29.1470 C   0  0  0  0  0  0  0  0  0  0  0  0
   52.1000  156.0740   28.3850 C   0  0  0  0  0  0  0  0  0  0  0  0
   52.6840  156.4390   27.1770 O   0  0  0  0  0  0  0  0  0  0  0  0
   53.2060  155.4620   26.3700 C   0  0  0  0  0  0  0  0  0  0  0  0
   53.7690  155.8720   25.1610 C   0  0  0  0  0  0  0  0  0  0  0  0
   54.3200  154.9270   24.2930 C   0  0  0  0  0  0  0  0  0  0  0  0
   54.3080  153.5730   24.6330 C   0  0  0  0  0  0  0  0  0  0  0  0
   53.7450  153.1660   25.8400 C   0  0  0  0  0  0  0  0  0  0  0  0
   53.7670  151.8250   26.1110 O   0  0  0  0  0  0  0  0  0  0  0  0
   53.1930  154.1120   26.7080 C   0  0  0  0  0  0  0  0  0  0  0  0
   52.5930  153.7270   27.9860 C   0  0  0  0  0  0  0  0  0  0  0  0
   52.5500  152.5560   28.3590 O   0  0  0  0  0  0  0  0  0  0  0  0
   52.0300  154.8050   28.8310 C   0  0  0  0  0  0  0  0  0  0  0  0
   51.4760  154.4310   30.0420 O   0  0  0  0  0  0  0  0  0  0  0  0
   52.3860  158.3430   29.4300 C   0  0  0  0  0  0  0  0  0  0  0  0
   51.8820  159.4150   30.1740 C   0  0  0  0  0  0  0  0  0  0  0  0
   50.5680  159.4040   30.6670 C   0  0  0  0  0  0  0  0  0  0  0  0
   50.0320  160.4790   31.4070 N   0  0  0  0  0  0  0  0  0  0  0  0
   48.8610  161.1020   30.7710 C   0  0  0  0  0  0  0  0  0  0  0  0
   48.5110  162.3880   31.5220 C   0  0  0  0  0  0  0  0  0  0  0  0
   48.2860  162.1120   33.0080 C   0  0  0  0  0  0  0  0  0  0  0  0
   49.4780  161.3720   33.6140 C   0  0  0  0  0  0  0  0  0  0  0  0
   49.8140  160.1130   32.8150 C   0  0  0  0  0  0  0  0  0  0  0  0
   48.3417  158.2241   31.9960 H   0  0  0  0  0  0  0  0  0  0  0  0
   47.7821  159.0986   30.5302 H   0  0  0  0  0  0  0  0  0  0  0  0
   47.8606  157.3040   30.5302 H   0  0  0  0  0  0  0  0  0  0  0  0
   49.6314  156.3435   29.4366 H   0  0  0  0  0  0  0  0  0  0  0  0
   53.7788  156.9385   24.8919 H   0  0  0  0  0  0  0  0  0  0  0  0
   54.7642  155.2500   23.3399 H   0  0  0  0  0  0  0  0  0  0  0  0
   54.7424  152.8291   23.9489 H   0  0  0  0  0  0  0  0  0  0  0  0
   53.1180  151.2620   25.7390 H   0  0  0  0  0  0  0  0  0  0  0  0
   51.7870  153.6650   30.4810 H   0  0  0  0  0  0  0  0  0  0  0  0
   53.4227  158.3745   29.0636 H   0  0  0  0  0  0  0  0  0  0  0  0
   52.5274  160.2825   30.3764 H   0  0  0  0  0  0  0  0  0  0  0  0
   49.0935  161.3391   29.7223 H   0  0  0  0  0  0  0  0  0  0  0  0
   48.0077  160.4087   30.8040 H   0  0  0  0  0  0  0  0  0  0  0  0
   49.3373  163.1055   31.4107 H   0  0  0  0  0  0  0  0  0  0  0  0
   47.5830  162.7992   31.0981 H   0  0  0  0  0  0  0  0  0  0  0  0
   48.1503  163.0680   33.5350 H   0  0  0  0  0  0  0  0  0  0  0  0
   47.3907  161.4821   33.1159 H   0  0  0  0  0  0  0  0  0  0  0  0
   50.3519  162.0400   33.6146 H   0  0  0  0  0  0  0  0  0  0  0  0
   49.2163  161.0730   34.6397 H   0  0  0  0  0  0  0  0  0  0  0  0
   50.7264  159.6519   33.2210 H   0  0  0  0  0  0  0  0  0  0  0  0
   48.9826  159.3963   32.8866 H   0  0  0  0  0  0  0  0  0  0  0  0
  1  2  1  0
  2  3  2  0
  3  4  1  0
  4  5  1  0
  5  6  1  0
  6  7  1  0
  7  8  2  0
  8  9  1  0
  9 10  2  0
 10 11  1  0
 11 12  1  0
 11 13  2  0
 13 14  1  0
 14 15  2  0
 14 16  1  0
 16 17  1  0
  4 18  2  0
 18 19  1  0
 19 20  2  0
 20 21  1  0
 21 22  1  0
 22 23  1  0
 23 24  1  0
 24 25  1  0
 25 26  1  0
 20  2  1  0
 26 21  1  0
 16  5  2  0
 13  7  1  0
  1 27  1  0
  1 28  1  0
  1 29  1  0
  3 30  1  0
  8 31  1  0
  9 32  1  0
 10 33  1  0
 12 34  1  0
 17 35  1  0
 18 36  1  0
 19 37  1  0
 22 38  1  0
 22 39  1  0
 23 40  1  0
 23 41  1  0
 24 42  1  0
 24 43  1  0
 25 44  1  0
 25 45  1  0
 26 46  1  0
 26 47  1  0
M  END
>  <meeko>  (3) 
{"is_sidechain": [false], "free_energy": -10.275, "intermolecular_energy": -13.133, "internal_energy": 0.602}

$$$$
cand_023_out
     RDKit          3D

 47 50  0  0  0  0  0  0  0  0999 V2000
   54.0150  156.6410   25.4950 C   0  0  0  0  0  0  0  0  0  0  0  0
   53.1580  156.1280   26.6210 C   0  0  0  0  0  0  0  0  0  0  0  0
   52.5240  157.0430   27.4820 C   0  0  0  0  0  0  0  0  0  0  0  0
   51.7120  156.6100   28.5410 C   0  0  0  0  0  0  0  0  0  0  0  0
   51.0850  157.6010   29.4410 C   0  0  0  0  0  0  0  0  0  0  0  0
   51.9030  158.6970   29.6920 O   0  0  0  0  0  0  0  0  0  0  0  0
   51.4440  159.6950   30.5110 C   0  0  0  0  0  0  0  0  0  0  0  0
   52.3040  160.7690   30.7460 C   0  0  0  0  0  0  0  0  0  0  0  0
   51.8970  161.8200   31.5700 C   0  0  0  0  0  0  0  0  0  0  0  0
   50.6310  161.7980   32.1590 C   0  0  0  0  0  0  0  0  0  0  0  0
   49.7750  160.7250   31.9240 C   0  0  0  0  0  0  0  0  0  0  0  0
   48.5500  160.7670   32.5320 O   0  0  0  0  0  0  0  0  0  0  0  0
   50.1830  159.6730   31.0990 C   0  0  0  0  0  0  0  0  0  0  0  0
   49.3140  158.5270   30.8250 C   0  0  0  0  0  0  0  0  0  0  0  0
   48.1840  158.4390   31.3010 O   0  0  0  0  0  0  0  0  0  0  0  0
   49.8440  157.4620   29.9430 C   0  0  0  0  0  0  0  0  0  0  0  0
   49.0090  156.3910   29.6800 O   0  0  0  0  0  0  0  0  0  0  0  0
   51.5540  155.2340   28.7360 C   0  0  0  0  0  0  0  0  0  0  0  0
   52.1770  154.3160   27.8840 C   0  0  0  0  0  0  0  0  0  0  0  0
   52.9870  154.7450   26.8220 C   0  0  0  0  0  0  0  0  0  0  0  0
   53.6150  153.8390   25.9400 N   0  0  0  0  0  0  0  0  0  0  0  0
   53.5210  152.4360   26.3760 C   0  0  0  0  0  0  0  0  0  0  0  0
   54.4260  151.5780   25.4900 C   0  0  0  0  0  0  0  0  0  0  0  0
   54.0730  151.7510   24.0140 C   0  0  0  0  0  0  0  0  0  0  0  0
   54.0790  153.2270   23.6190 C   0  0  0  0  0  0  0  0  0  0  0  0
   53.1890  154.0540   24.5480 C   0  0  0  0  0  0  0  0  0  0  0  0
   54.8895  157.1645   25.9089 H   0  0  0  0  0  0  0  0  0  0  0  0
   54.3522  155.7961   24.8766 H   0  0  0  0  0  0  0  0  0  0  0  0
   53.4296  157.3374   24.8766 H   0  0  0  0  0  0  0  0  0  0  0  0
   52.6683  158.1216   27.3211 H   0  0  0  0  0  0  0  0  0  0  0  0
   53.3014  160.7873   30.2825 H   0  0  0  0  0  0  0  0  0  0  0  0
   52.5745  162.6665   31.7555 H   0  0  0  0  0  0  0  0  0  0  0  0
   50.3105  162.6268   32.8074 H   0  0  0  0  0  0  0  0  0  0  0  0
   48.4540  161.1850   33.3650 H   0  0  0  0  0  0  0  0  0  0  0  0
   48.1120  156.5410   29.4540 H   0  0  0  0  0  0  0  0  0  0  0  0
   50.9334  154.8699   29.5680 H   0  0  0  0  0  0  0  0  0  0  0  0
   52.0291  153.2386   28.0497 H   0  0  0  0  0  0  0  0  0  0  0  0
   53.8447  152.3529   27.4240 H   0  0  0  0  0  0  0  0  0  0  0  0
   52.4806  152.0892   26.2912 H   0  0  0  0  0  0  0  0  0  0  0  0
   55.4724  151.8788   25.6470 H   0  0  0  0  0  0  0  0  0  0  0  0
   54.2827  150.5219   25.7624 H   0  0  0  0  0  0  0  0  0  0  0  0
   54.8111  151.2118   23.4020 H   0  0  0  0  0  0  0  0  0  0  0  0
   53.0638  151.3471   23.8453 H   0  0  0  0  0  0  0  0  0  0  0  0
   55.1090  153.6090   23.6756 H   0  0  0  0  0  0  0  0  0  0  0  0
   53.6877  153.3141   22.5947 H   0  0  0  0  0  0  0  0  0  0  0  0
   53.2824  155.1204   24.2947 H   0  0  0  0  0  0  0  0  0  0  0  0
   52.1402  153.7441   24.4293 H   0  0  0  0  0  0  0  0  0  0  0  0
  1  2  1  0
  2  3  2  0
  3  4  1  0
  4  5  1  0
  5  6  1  0
  6  7  1  0
  7  8  2  0
  8  9  1  0
  9 10  2  0
 10 11  1  0
 11 12  1  0
 11 13  2  0
 13 14  1  0
 14 15  2  0
 14 16  1  0
 16 17  1  0
  4 18  2  0
 18 19  1  0
 19 20  2  0
 20 21  1  0
 21 22  1  0
 22 23  1  0
 23 24  1  0
 24 25  1  0
 25 26  1  0
 20  2  1  0
 26 21  1  0
 16  5  2  0
 13  7  1  0
  1 27  1  0
  1 28  1  0
  1 29  1  0
  3 30  1  0
  8 31  1  0
  9 32  1  0
 10 33  1  0
 12 34  1  0
 17 35  1  0
 18 36  1  0
 19 37  1  0
 22 38  1  0
 22 39  1  0
 23 40  1  0
 23 41  1  0
 24 42  1  0
 24 43  1  0
 25 44  1  0
 25 45  1  0
 26 46  1  0
 26 47  1  0
M  END
>  <meeko>  (4) 
{"is_sidechain": [false], "free_energy": -9.844, "intermolecular_energy": -12.383, "internal_energy": 0.36}

$$$$
cand_023_out
     RDKit          3D

 47 50  0  0  0  0  0  0  0  0999 V2000
   51.8840  159.4660   29.9380 C   0  0  0  0  0  0  0  0  0  0  0  0
   51.3290  158.1090   29.5990 C   0  0  0  0  0  0  0  0  0  0  0  0
   52.0300  157.2770   28.7060 C   0  0  0  0  0  0  0  0  0  0  0  0
   51.5520  156.0030   28.3650 C   0  0  0  0  0  0  0  0  0  0  0  0
   52.3020  155.1690   27.4030 C   0  0  0  0  0  0  0  0  0  0  0  0
   51.9700  153.8210   27.4820 O   0  0  0  0  0  0  0  0  0  0  0  0
   52.5900  152.9330   26.6420 C   0  0  0  0  0  0  0  0  0  0  0  0
   52.2360  151.5890   26.7660 C   0  0  0  0  0  0  0  0  0  0  0  0
   52.8300  150.6330   25.9390 C   0  0  0  0  0  0  0  0  0  0  0  0
   53.7770  151.0200   24.9880 C   0  0  0  0  0  0  0  0  0  0  0  0
   54.1290  152.3620   24.8670 C   0  0  0  0  0  0  0  0  0  0  0  0
   55.0630  152.6730   23.9160 O   0  0  0  0  0  0  0  0  0  0  0  0
   53.5350  153.3190   25.6950 C   0  0  0  0  0  0  0  0  0  0  0  0
   53.8750  154.7390   25.6000 C   0  0  0  0  0  0  0  0  0  0  0  0
   54.6950  155.1590   24.7840 O   0  0  0  0  0  0  0  0  0  0  0  0
   53.1940  155.6710   26.5280 C   0  0  0  0  0  0  0  0  0  0  0  0
   53.5140  157.0120   26.4200 O   0  0  0  0  0  0  0  0  0  0  0  0
   50.3440  155.5750   28.9260 C   0  0  0  0  0  0  0  0  0  0  0  0
   49.6410  156.3930   29.8170 C   0  0  0  0  0  0  0  0  0  0  0  0
   50.1170  157.6670   30.1640 C   0  0  0  0  0  0  0  0  0  0  0  0
   49.4340  158.5050   31.0710 N   0  0  0  0  0  0  0  0  0  0  0  0
   50.2570  159.6130   31.5790 C   0  0  0  0  0  0  0  0  0  0  0  0
   49.5090  160.3070   32.7190 C   0  0  0  0  0  0  0  0  0  0  0  0
   48.1270  160.7730   32.2650 C   0  0  0  0  0  0  0  0  0  0  0  0
   47.3360  159.6200   31.6480 C   0  0  0  0  0  0  0  0  0  0  0  0
   48.1310  158.9340   30.5370 C   0  0  0  0  0  0  0  0  0  0  0  0
   51.9308  159.5804   31.0310 H   0  0  0  0  0  0  0  0  0  0  0  0
   52.8948  159.5648   29.5154 H   0  0  0  0  0  0  0  0  0  0  0  0
   51.2321  160.2448   29.5154 H   0  0  0  0  0  0  0  0  0  0  0  0
   52.9730  157.6335   28.2660 H   0  0  0  0  0  0  0  0  0  0  0  0
   51.4900  151.2828   27.5142 H   0  0  0  0  0  0  0  0  0  0  0  0
   52.5515  149.5733   26.0368 H   0  0  0  0  0  0  0  0  0  0  0  0
   54.2436  150.2667   24.3363 H   0  0  0  0  0  0  0  0  0  0  0  0
   55.6660  153.3740   24.0640 H   0  0  0  0  0  0  0  0  0  0  0  0
   53.0050  157.5710   25.8660 H   0  0  0  0  0  0  0  0  0  0  0  0
   49.9427  154.5849   28.6638 H   0  0  0  0  0  0  0  0  0  0  0  0
   48.6983  156.0313   30.2534 H   0  0  0  0  0  0  0  0  0  0  0  0
   51.2147  159.2204   31.9514 H   0  0  0  0  0  0  0  0  0  0  0  0
   50.4519  160.3325   30.7701 H   0  0  0  0  0  0  0  0  0  0  0  0
   49.3938  159.6017   33.5552 H   0  0  0  0  0  0  0  0  0  0  0  0
   50.0892  161.1871   33.0334 H   0  0  0  0  0  0  0  0  0  0  0  0
   47.5758  161.1635   33.1332 H   0  0  0  0  0  0  0  0  0  0  0  0
   48.2538  161.5576   31.5046 H   0  0  0  0  0  0  0  0  0  0  0  0
   47.1061  158.8832   32.4317 H   0  0  0  0  0  0  0  0  0  0  0  0
   46.4109  160.0266   31.2133 H   0  0  0  0  0  0  0  0  0  0  0  0
   47.5750  158.0571   30.1739 H   0  0  0  0  0  0  0  0  0  0  0  0
   48.2849  159.6358   29.7041 H   0  0  0  0  0  0  0  0  0  0  0  0
  1  2  1  0
  2  3  2  0
  3  4  1  0
  4  5  1  0
  5  6  1  0
  6  7  1  0
  7  8  2  0
  8  9  1  0
  9 10  2  0
 10 11  1  0
 11 12  1  0
 11 13  2  0
 13 14  1  0
 14 15  2  0
 14 16  1  0
 16 17  1  0
  4 18  2  0
 18 19  1  0
 19 20  2  0
 20 21  1  0
 21 22  1  0
 22 23  1  0
 23 24  1  0
 24 25  1  0
 25 26  1  0
 20  2  1  0
 26 21  1  0
 16  5  2  0
 13  7  1  0
  1 27  1  0
  1 28  1  0
  1 29  1  0
  3 30  1  0
  8 31  1  0
  9 32  1  0
 10 33  1  0
 12 34  1  0
 17 35  1  0
 18 36  1  0
 19 37  1  0
 22 38  1  0
 22 39  1  0
 23 40  1  0
 23 41  1  0
 24 42  1  0
 24 43  1  0
 25 44  1  0
 25 45  1  0
 26 46  1  0
 26 47  1  0
M  END
>  <meeko>  (5) 
{"is_sidechain": [false], "free_energy": -8.972, "intermolecular_energy": -12.701, "internal_energy": 1.702}

$$$$
cand_023_out
     RDKit          3D

 47 50  0  0  0  0  0  0  0  0999 V2000
   52.3830  159.2110   29.8600 C   0  0  0  0  0  0  0  0  0  0  0  0
   51.6190  157.9470   29.5700 C   0  0  0  0  0  0  0  0  0  0  0  0
   52.1890  156.9690   28.7350 C   0  0  0  0  0  0  0  0  0  0  0  0
   51.5150  155.7740   28.4410 C   0  0  0  0  0  0  0  0  0  0  0  0
   52.1340  154.7820   27.5380 C   0  0  0  0  0  0  0  0  0  0  0  0
   52.9130  155.3670   26.5460 O   0  0  0  0  0  0  0  0  0  0  0  0
   53.5490  154.5600   25.6380 C   0  0  0  0  0  0  0  0  0  0  0  0
   54.3100  155.1910   24.6530 C   0  0  0  0  0  0  0  0  0  0  0  0
   54.9840  154.4270   23.6990 C   0  0  0  0  0  0  0  0  0  0  0  0
   54.8990  153.0330   23.7290 C   0  0  0  0  0  0  0  0  0  0  0  0
   54.1390  152.4060   24.7130 C   0  0  0  0  0  0  0  0  0  0  0  0
   54.0980  151.0390   24.6850 O   0  0  0  0  0  0  0  0  0  0  0  0
   53.4630  153.1710   25.6680 C   0  0  0  0  0  0  0  0  0  0  0  0
   52.6550  152.5530   26.7200 C   0  0  0  0  0  0  0  0  0  0  0  0
   52.5360  151.3320   26.8170 O   0  0  0  0  0  0  0  0  0  0  0  0
   51.9740  153.4520   27.6790 C   0  0  0  0  0  0  0  0  0  0  0  0
   51.2230  152.8560   28.6760 O   0  0  0  0  0  0  0  0  0  0  0  0
   50.2430  155.5780   28.9900 C   0  0  0  0  0  0  0  0  0  0  0  0
   49.6680  156.5430   29.8240 C   0  0  0  0  0  0  0  0  0  0  0  0
   50.3410  157.7380   30.1230 C   0  0  0  0  0  0  0  0  0  0  0  0
   49.7890  158.7200   30.9730 N   0  0  0  0  0  0  0  0  0  0  0  0
   50.4910  160.0110   30.9110 C   0  0  0  0  0  0  0  0  0  0  0  0
   49.9700  160.9160   32.0280 C   0  0  0  0  0  0  0  0  0  0  0  0
   48.4530  161.0770   31.9430 C   0  0  0  0  0  0  0  0  0  0  0  0
   47.7600  159.7160   31.9070 C   0  0  0  0  0  0  0  0  0  0  0  0
   48.3310  158.8310   30.7980 C   0  0  0  0  0  0  0  0  0  0  0  0
   52.4658  159.3479   30.9483 H   0  0  0  0  0  0  0  0  0  0  0  0
   53.3894  159.1398   29.4218 H   0  0  0  0  0  0  0  0  0  0  0  0
   51.8522  160.0690   29.4218 H   0  0  0  0  0  0  0  0  0  0  0  0
   53.1852  157.1449   28.3030 H   0  0  0  0  0  0  0  0  0  0  0  0
   54.3785  156.2886   24.6285 H   0  0  0  0  0  0  0  0  0  0  0  0
   55.5834  154.9237   22.9218 H   0  0  0  0  0  0  0  0  0  0  0  0
   55.4312  152.4320   22.9770 H   0  0  0  0  0  0  0  0  0  0  0  0
   54.3980  150.5470   25.4230 H   0  0  0  0  0  0  0  0  0  0  0  0
   51.2160  153.2230   29.5380 H   0  0  0  0  0  0  0  0  0  0  0  0
   49.6890  154.6551   28.7634 H   0  0  0  0  0  0  0  0  0  0  0  0
   48.6713  156.3621   30.2528 H   0  0  0  0  0  0  0  0  0  0  0  0
   51.5713  159.8498   31.0408 H   0  0  0  0  0  0  0  0  0  0  0  0
   50.3111  160.4850   29.9348 H   0  0  0  0  0  0  0  0  0  0  0  0
   50.2303  160.4726   33.0004 H   0  0  0  0  0  0  0  0  0  0  0  0
   50.4332  161.9077   31.9188 H   0  0  0  0  0  0  0  0  0  0  0  0
   48.1007  161.6371   32.8218 H   0  0  0  0  0  0  0  0  0  0  0  0
   48.2091  161.6194   31.0177 H   0  0  0  0  0  0  0  0  0  0  0  0
   47.9042  159.2147   32.8755 H   0  0  0  0  0  0  0  0  0  0  0  0
   46.6902  159.8762   31.7072 H   0  0  0  0  0  0  0  0  0  0  0  0
   47.8761  157.8310   30.8537 H   0  0  0  0  0  0  0  0  0  0  0  0
   48.1082  159.2760   29.8170 H   0  0  0  0  0  0  0  0  0  0  0  0
  1  2  1  0
  2  3  2  0
  3  4  1  0
  4  5  1  0
  5  6  1  0
  6  7  1  0
  7  8  2  0
  8  9  1  0
  9 10  2  0
 10 11  1  0
 11 12  1  0
 11 13  2  0
 13 14  1  0
 14 15  2  0
 14 16  1  0
 16 17  1  0
  4 18  2  0
 18 19  1  0
 19 20  2  0
 20 21  1  0
 21 22  1  0
 22 23  1  0
 23 24  1  0
 24 25  1  0
 25 26  1  0
 20  2  1  0
 26 21  1  0
 16  5  2  0
 13  7  1  0
  1 27  1  0
  1 28  1  0
  1 29  1  0
  3 30  1  0
  8 31  1  0
  9 32  1  0
 10 33  1  0
 12 34  1  0
 17 35  1  0
 18 36  1  0
 19 37  1  0
 22 38  1  0
 22 39  1  0
 23 40  1  0
 23 41  1  0
 24 42  1  0
 24 43  1  0
 25 44  1  0
 25 45  1  0
 26 46  1  0
 26 47  1  0
M  END
>  <meeko>  (6) 
{"is_sidechain": [false], "free_energy": -8.756, "intermolecular_energy": -12.286, "internal_energy": 1.542}

$$$$
