cand_008_out
     RDKit          3D

 35 37  0  0  0  0  0  0  0  0999 V2000
   52.2800  152.6080   28.5660 O   0  0  0  0  0  0  0  0  0  0  0  0
   52.3760  153.7680   28.1710 C   0  0  0  0  0  0  0  0  0  0  0  0
   51.8910  154.8900   29.0090 C   0  0  0  0  0  0  0  0  0  0  0  0
   51.3230  154.5660   30.2280 O   0  0  0  0  0  0  0  0  0  0  0  0
   52.0140  156.1450   28.5370 C   0  0  0  0  0  0  0  0  0  0  0  0
   51.5540  157.3370   29.2800 C   0  0  0  0  0  0  0  0  0  0  0  0
   52.3660  158.4660   29.4360 C   0  0  0  0  0  0  0  0  0  0  0  0
   51.9040  159.5910   30.1230 C   0  0  0  0  0  0  0  0  0  0  0  0
   50.6120  159.6210   30.6710 C   0  0  0  0  0  0  0  0  0  0  0  0
   50.1380  160.8550   31.4060 C   0  0  0  0  0  0  0  0  0  0  0  0
   49.2870  161.6250   30.6680 F   0  0  0  0  0  0  0  0  0  0  0  0
   51.1700  161.6800   31.7420 F   0  0  0  0  0  0  0  0  0  0  0  0
   49.7700  158.4980   30.5020 C   0  0  0  0  0  0  0  0  0  0  0  0
   48.3670  158.4770   31.0680 C   0  0  0  0  0  0  0  0  0  0  0  0
   48.3390  158.8370   32.3820 F   0  0  0  0  0  0  0  0  0  0  0  0
   47.5230  159.3440   30.4400 F   0  0  0  0  0  0  0  0  0  0  0  0
   50.2570  157.3700   29.8140 C   0  0  0  0  0  0  0  0  0  0  0  0
   52.5600  156.4580   27.2990 O   0  0  0  0  0  0  0  0  0  0  0  0
   53.0250  155.4400   26.5030 C   0  0  0  0  0  0  0  0  0  0  0  0
   53.5770  155.8010   25.2730 C   0  0  0  0  0  0  0  0  0  0  0  0
   54.0670  154.8150   24.4150 C   0  0  0  0  0  0  0  0  0  0  0  0
   54.0060  153.4700   24.7860 C   0  0  0  0  0  0  0  0  0  0  0  0
   53.4540  153.1130   26.0130 C   0  0  0  0  0  0  0  0  0  0  0  0
   53.4250  151.7800   26.3130 O   0  0  0  0  0  0  0  0  0  0  0  0
   52.9640  154.1010   26.8730 C   0  0  0  0  0  0  0  0  0  0  0  0
   51.6150  153.8080   30.6940 H   0  0  0  0  0  0  0  0  0  0  0  0
   53.3811  158.4675   29.0122 H   0  0  0  0  0  0  0  0  0  0  0  0
   52.5616  160.4655   30.2362 H   0  0  0  0  0  0  0  0  0  0  0  0
   49.6294  160.4524   32.2944 H   0  0  0  0  0  0  0  0  0  0  0  0
   48.0398  157.4372   30.9207 H   0  0  0  0  0  0  0  0  0  0  0  0
   49.6044  156.4929   29.6922 H   0  0  0  0  0  0  0  0  0  0  0  0
   53.6258  156.8602   24.9803 H   0  0  0  0  0  0  0  0  0  0  0  0
   54.5019  155.0979   23.4450 H   0  0  0  0  0  0  0  0  0  0  0  0
   54.3936  152.6939   24.1096 H   0  0  0  0  0  0  0  0  0  0  0  0
   52.7510  151.4400   26.8690 H   0  0  0  0  0  0  0  0  0  0  0  0
  1  2  2  0
  2  3  1  0
  3  4  1  0
  3  5  2  0
  5  6  1  0
  6  7  2  0
  7  8  1  0
  8  9  2  0
  9 10  1  0
 10 11  1  0
 10 12  1  0
  9 13  1  0
 13 14  1  0
 14 15  1  0
 14 16  1  0
 13 17  2  0
  5 18  1  0
 18 19  1  0
 19 20  2  0
 20 21  1  0
 21 22  2  0
 22 23  1  0
 23 24  1  0
 23 25  2  0
 25  2  1  0
 17  6  1  0
 25 19  1  0
  4 26  1  0
  7 27  1  0
  8 28  1  0
 10 29  1  0
 14 30  1  0
 17 31  1  0
 20 32  1  0
 21 33  1  0
 22 34  1  0
 24 35  1  0
M  END
>  <meeko>  (1) 
{"is_sidechain": [false], "free_energy": -11.04, "intermolecular_energy": -13.621, "internal_energy": -0.188}

$$$$
cand_008_out
     RDKit          3D

 35 37  0  0  0  0  0  0  0  0999 V2000
   52.4830  153.0550   28.8500 O   0  0  0  0  0  0  0  0  0  0  0  0
   52.4110  154.2250   28.4810 C   0  0  0  0  0  0  0  0  0  0  0  0
   51.7140  155.2340   29.3120 C   0  0  0  0  0  0  0  0  0  0  0  0
   51.1470  154.7930   30.4950 O   0  0  0  0  0  0  0  0  0  0  0  0
   51.6560  156.5030   28.8700 C   0  0  0  0  0  0  0  0  0  0  0  0
   50.9770  157.5880   29.6090 C   0  0  0  0  0  0  0  0  0  0  0  0
   49.6650  157.4530   30.0750 C   0  0  0  0  0  0  0  0  0  0  0  0
   49.0500  158.4830   30.7910 C   0  0  0  0  0  0  0  0  0  0  0  0
   49.7330  159.6780   31.0660 C   0  0  0  0  0  0  0  0  0  0  0  0
   49.0420  160.7730   31.8470 C   0  0  0  0  0  0  0  0  0  0  0  0
   48.0310  160.3110   32.6380 F   0  0  0  0  0  0  0  0  0  0  0  0
   48.4660  161.7010   31.0320 F   0  0  0  0  0  0  0  0  0  0  0  0
   51.0680  159.8210   30.6230 C   0  0  0  0  0  0  0  0  0  0  0  0
   51.8530  161.0850   30.8950 C   0  0  0  0  0  0  0  0  0  0  0  0
   52.2930  161.1480   32.1840 F   0  0  0  0  0  0  0  0  0  0  0  0
   52.9750  161.1940   30.1270 F   0  0  0  0  0  0  0  0  0  0  0  0
   51.6680  158.7760   29.8960 C   0  0  0  0  0  0  0  0  0  0  0  0
   52.2040  156.9300   27.6660 O   0  0  0  0  0  0  0  0  0  0  0  0
   52.8620  156.0200   26.8770 C   0  0  0  0  0  0  0  0  0  0  0  0
   53.4070  156.4950   25.6830 C   0  0  0  0  0  0  0  0  0  0  0  0
   54.0890  155.6220   24.8340 C   0  0  0  0  0  0  0  0  0  0  0  0
   54.2260  154.2740   25.1780 C   0  0  0  0  0  0  0  0  0  0  0  0
   53.6810  153.8040   26.3700 C   0  0  0  0  0  0  0  0  0  0  0  0
   53.8510  152.4750   26.6450 O   0  0  0  0  0  0  0  0  0  0  0  0
   52.9990  154.6790   27.2210 C   0  0  0  0  0  0  0  0  0  0  0  0
   50.2190  154.8310   30.6120 H   0  0  0  0  0  0  0  0  0  0  0  0
   49.1106  156.5242   29.8752 H   0  0  0  0  0  0  0  0  0  0  0  0
   48.0160  158.3557   31.1442 H   0  0  0  0  0  0  0  0  0  0  0  0
   49.8476  161.2082   32.4565 H   0  0  0  0  0  0  0  0  0  0  0  0
   51.1412  161.8915   30.6648 H   0  0  0  0  0  0  0  0  0  0  0  0
   52.7036  158.8928   29.5440 H   0  0  0  0  0  0  0  0  0  0  0  0
   53.2992  157.5555   25.4116 H   0  0  0  0  0  0  0  0  0  0  0  0
   54.5193  155.9952   23.8929 H   0  0  0  0  0  0  0  0  0  0  0  0
   54.7632  153.5861   24.5085 H   0  0  0  0  0  0  0  0  0  0  0  0
   53.6360  152.1420   27.4930 H   0  0  0  0  0  0  0  0  0  0  0  0
  1  2  2  0
  2  3  1  0
  3  4  1  0
  3  5  2  0
  5  6  1  0
  6  7  2  0
  7  8  1  0
  8  9  2  0
  9 10  1  0
 10 11  1  0
 10 12  1  0
  9 13  1  0
 13 14  1  0
 14 15  1  0
 14 16  1  0
 13 17  2  0
  5 18  1  0
 18 19  1  0
 19 20  2  0
 20 21  1  0
 21 22  2  0
 22 23  1  0
 23 24  1  0
 23 25  2  0
 25  2  1  0
 17  6  1  0
 25 19  1  0
  4 26  1  0
  7 27  1  0
  8 28  1  0
 10 29  1  0
 14 30  1  0
 17 31  1  0
 20 32  1  0
 21 33  1  0
 22 34  1  0
 24 35  1  0
M  END
>  <meeko>  (2) 
{"is_sidechain": [false], "free_energy": -10.945, "intermolecular_energy": -13.264, "internal_energy": -0.428}

$$$$
cand_008_out
     RDKit          3D

 35 37  0  0  0  0  0  0  0  0999 V2000
   52.5750  160.5790   30.5590 O   0  0  0  0  0  0  0  0  0  0  0  0
   51.8180  159.6380   30.3280 C   0  0  0  0  0  0  0  0  0  0  0  0
   52.3000  158.4520   29.5830 C   0  0  0  0  0  0  0  0  0  0  0  0
   53.6170  158.4670   29.1570 O   0  0  0  0  0  0  0  0  0  0  0  0
   51.4390  157.4450   29.3490 C   0  0  0  0  0  0  0  0  0  0  0  0
   51.8060  156.2210   28.6070 C   0  0  0  0  0  0  0  0  0  0  0  0
   51.5340  154.9450   29.1100 C   0  0  0  0  0  0  0  0  0  0  0  0
   51.8690  153.8000   28.3820 C   0  0  0  0  0  0  0  0  0  0  0  0
   52.4840  153.9020   27.1240 C   0  0  0  0  0  0  0  0  0  0  0  0
   52.8310  152.6450   26.3570 C   0  0  0  0  0  0  0  0  0  0  0  0
   52.0650  151.5730   26.7110 F   0  0  0  0  0  0  0  0  0  0  0  0
   54.1190  152.2540   26.5690 F   0  0  0  0  0  0  0  0  0  0  0  0
   52.7440  155.1840   26.5900 C   0  0  0  0  0  0  0  0  0  0  0  0
   53.4000  155.3520   25.2370 C   0  0  0  0  0  0  0  0  0  0  0  0
   53.2970  156.6300   24.7730 F   0  0  0  0  0  0  0  0  0  0  0  0
   54.7360  155.0830   25.2530 F   0  0  0  0  0  0  0  0  0  0  0  0
   52.4060  156.3250   27.3430 C   0  0  0  0  0  0  0  0  0  0  0  0
   50.1100  157.4520   29.7560 O   0  0  0  0  0  0  0  0  0  0  0  0
   49.6360  158.5340   30.4550 C   0  0  0  0  0  0  0  0  0  0  0  0
   48.2990  158.4930   30.8540 C   0  0  0  0  0  0  0  0  0  0  0  0
   47.7540  159.5620   31.5670 C   0  0  0  0  0  0  0  0  0  0  0  0
   48.5430  160.6710   31.8820 C   0  0  0  0  0  0  0  0  0  0  0  0
   49.8760  160.7080   31.4820 C   0  0  0  0  0  0  0  0  0  0  0  0
   50.5920  161.8230   31.8210 O   0  0  0  0  0  0  0  0  0  0  0  0
   50.4230  159.6380   30.7680 C   0  0  0  0  0  0  0  0  0  0  0  0
   54.2290  159.0560   29.5520 H   0  0  0  0  0  0  0  0  0  0  0  0
   51.0497  154.8410   30.0922 H   0  0  0  0  0  0  0  0  0  0  0  0
   51.6481  152.8067   28.7998 H   0  0  0  0  0  0  0  0  0  0  0  0
   52.6551  152.9205   25.3067 H   0  0  0  0  0  0  0  0  0  0  0  0
   52.8647  154.6376   24.5943 H   0  0  0  0  0  0  0  0  0  0  0  0
   52.6176  157.3223   26.9300 H   0  0  0  0  0  0  0  0  0  0  0  0
   47.6764  157.6204   30.6071 H   0  0  0  0  0  0  0  0  0  0  0  0
   46.7004  159.5312   31.8817 H   0  0  0  0  0  0  0  0  0  0  0  0
   48.1123  161.5125   32.4444 H   0  0  0  0  0  0  0  0  0  0  0  0
   50.1470  162.6250   32.0110 H   0  0  0  0  0  0  0  0  0  0  0  0
  1  2  2  0
  2  3  1  0
  3  4  1  0
  3  5  2  0
  5  6  1  0
  6  7  2  0
  7  8  1  0
  8  9  2  0
  9 10  1  0
 10 11  1  0
 10 12  1  0
  9 13  1  0
 13 14  1  0
 14 15  1  0
 14 16  1  0
 13 17  2  0
  5 18  1  0
 18 19  1  0
 19 20  2  0
 20 21  1  0
 21 22  2  0
 22 23  1  0
 23 24  1  0
 23 25  2  0
 25  2  1  0
 17  6  1  0
 25 19  1  0
  4 26  1  0
  7 27  1  0
  8 28  1  0
 10 29  1  0
 14 30  1  0
 17 31  1  0
 20 32  1  0
 21 33  1  0
 22 34  1  0
 24 35  1  0
M  END
>  <meeko>  (3) 
{"is_sidechain": [false], "free_energy": -10.874, "intermolecular_energy": -13.161, "internal_energy": -0.444}

$$$$
cand_008_out
     RDKit          3D

 35 37  0  0  0  0  0  0  0  0999 V2000
   48.1260  158.5350   30.9810 O   0  0  0  0  0  0  0  0  0  0  0  0
   49.2930  158.4760   30.5990 C   0  0  0  0  0  0  0  0  0  0  0  0
   49.7790  157.2930   29.8510 C   0  0  0  0  0  0  0  0  0  0  0  0
   48.8710  156.2740   29.6240 O   0  0  0  0  0  0  0  0  0  0  0  0
   51.0640  157.2670   29.4530 C   0  0  0  0  0  0  0  0  0  0  0  0
   51.6600  156.1350   28.7120 C   0  0  0  0  0  0  0  0  0  0  0  0
   51.5070  154.8120   29.1400 C   0  0  0  0  0  0  0  0  0  0  0  0
   52.0590  153.7550   28.4130 C   0  0  0  0  0  0  0  0  0  0  0  0
   52.7790  153.9920   27.2310 C   0  0  0  0  0  0  0  0  0  0  0  0
   53.3610  152.8260   26.4640 C   0  0  0  0  0  0  0  0  0  0  0  0
   52.5930  151.7010   26.5330 F   0  0  0  0  0  0  0  0  0  0  0  0
   54.5840  152.4580   26.9380 F   0  0  0  0  0  0  0  0  0  0  0  0
   52.9220  155.3200   26.7710 C   0  0  0  0  0  0  0  0  0  0  0  0
   53.6840  155.6330   25.5020 C   0  0  0  0  0  0  0  0  0  0  0  0
   52.9150  155.4640   24.3890 F   0  0  0  0  0  0  0  0  0  0  0  0
   54.1200  156.9240   25.4440 F   0  0  0  0  0  0  0  0  0  0  0  0
   52.3660  156.3730   27.5230 C   0  0  0  0  0  0  0  0  0  0  0  0
   51.9760  158.2830   29.7110 O   0  0  0  0  0  0  0  0  0  0  0  0
   51.5540  159.3950   30.3950 C   0  0  0  0  0  0  0  0  0  0  0  0
   52.5000  160.3960   30.6220 C   0  0  0  0  0  0  0  0  0  0  0  0
   52.1360  161.5530   31.3130 C   0  0  0  0  0  0  0  0  0  0  0  0
   50.8280  161.7100   31.7780 C   0  0  0  0  0  0  0  0  0  0  0  0
   49.8870  160.7090   31.5500 C   0  0  0  0  0  0  0  0  0  0  0  0
   48.6260  160.9260   32.0320 O   0  0  0  0  0  0  0  0  0  0  0  0
   50.2510  159.5510   30.8570 C   0  0  0  0  0  0  0  0  0  0  0  0
   48.9060  155.4930   30.1390 H   0  0  0  0  0  0  0  0  0  0  0  0
   50.9444  154.6014   30.0615 H   0  0  0  0  0  0  0  0  0  0  0  0
   51.9280  152.7232   28.7711 H   0  0  0  0  0  0  0  0  0  0  0  0
   53.4184  153.1959   25.4296 H   0  0  0  0  0  0  0  0  0  0  0  0
   54.5331  154.9341   25.5249 H   0  0  0  0  0  0  0  0  0  0  0  0
   52.4882  157.4075   27.1695 H   0  0  0  0  0  0  0  0  0  0  0  0
   53.5304  160.2733   30.2570 H   0  0  0  0  0  0  0  0  0  0  0  0
   52.8806  162.3427   31.4917 H   0  0  0  0  0  0  0  0  0  0  0  0
   50.5421  162.6219   32.3228 H   0  0  0  0  0  0  0  0  0  0  0  0
   48.3740  160.5700   32.8620 H   0  0  0  0  0  0  0  0  0  0  0  0
  1  2  2  0
  2  3  1  0
  3  4  1  0
  3  5  2  0
  5  6  1  0
  6  7  2  0
  7  8  1  0
  8  9  2  0
  9 10  1  0
 10 11  1  0
 10 12  1  0
  9 13  1  0
 13 14  1  0
 14 15  1  0
 14 16  1  0
 13 17  2  0
  5 18  1  0
 18 19  1  0
 19 20  2  0
 20 21  1  0
 21 22  2  0
 22 23  1  0
 23 24  1  0
 23 25  2  0
 25  2  1  0
 17  6  1  0
 25 19  1  0
  4 26  1  0
  7 27  1  0
  8 28  1  0
 10 29  1  0
 14 30  1  0
 17 31  1  0
 20 32  1  0
 21 33  1  0
 22 34  1  0
 24 35  1  0
M  END
>  <meeko>  (4) 
{"is_sidechain": [false], "free_energy": -9.597, "intermolecular_energy": -11.618, "internal_energy": -0.412}

$$$$
cand_008_out
     RDKit          3D

 35 37  0  0  0  0  0  0  0  0999 V2000
   52.3380  161.2580   31.3240 O   0  0  0  0  0  0  0  0  0  0  0  0
   51.6570  160.3150   30.9260 C   0  0  0  0  0  0  0  0  0  0  0  0
   52.2500  159.2760   30.0520 C   0  0  0  0  0  0  0  0  0  0  0  0
   53.5800  159.4310   29.7020 O   0  0  0  0  0  0  0  0  0  0  0  0
   51.4690  158.2620   29.6370 C   0  0  0  0  0  0  0  0  0  0  0  0
   51.9500  157.1790   28.7530 C   0  0  0  0  0  0  0  0  0  0  0  0
   52.5580  157.4470   27.5230 C   0  0  0  0  0  0  0  0  0  0  0  0
   53.0260  156.4090   26.7130 C   0  0  0  0  0  0  0  0  0  0  0  0
   52.9030  155.0700   27.1150 C   0  0  0  0  0  0  0  0  0  0  0  0
   53.4230  153.9680   26.2190 C   0  0  0  0  0  0  0  0  0  0  0  0
   54.4090  154.3850   25.3740 F   0  0  0  0  0  0  0  0  0  0  0  0
   52.4490  153.4590   25.4130 F   0  0  0  0  0  0  0  0  0  0  0  0
   52.3130  154.7820   28.3670 C   0  0  0  0  0  0  0  0  0  0  0  0
   52.1580  153.3580   28.8520 C   0  0  0  0  0  0  0  0  0  0  0  0
   51.5510  153.2960   30.0710 F   0  0  0  0  0  0  0  0  0  0  0  0
   51.3870  152.5920   28.0280 F   0  0  0  0  0  0  0  0  0  0  0  0
   51.8400  155.8410   29.1650 C   0  0  0  0  0  0  0  0  0  0  0  0
   50.1260  158.1310   29.9700 O   0  0  0  0  0  0  0  0  0  0  0  0
   49.5510  159.0730   30.7850 C   0  0  0  0  0  0  0  0  0  0  0  0
   48.2030  158.8950   31.1040 C   0  0  0  0  0  0  0  0  0  0  0  0
   47.5560  159.8180   31.9270 C   0  0  0  0  0  0  0  0  0  0  0  0
   48.2550  160.9180   32.4320 C   0  0  0  0  0  0  0  0  0  0  0  0
   49.5990  161.0920   32.1120 C   0  0  0  0  0  0  0  0  0  0  0  0
   50.2220  162.1890   32.6390 O   0  0  0  0  0  0  0  0  0  0  0  0
   50.2470  160.1670   31.2880 C   0  0  0  0  0  0  0  0  0  0  0  0
   54.2540  159.1620   30.2940 H   0  0  0  0  0  0  0  0  0  0  0  0
   52.6695  158.4889   27.1884 H   0  0  0  0  0  0  0  0  0  0  0  0
   53.4971  156.6445   25.7473 H   0  0  0  0  0  0  0  0  0  0  0  0
   53.8053  153.2150   26.9238 H   0  0  0  0  0  0  0  0  0  0  0  0
   53.1897  152.9780   28.8868 H   0  0  0  0  0  0  0  0  0  0  0  0
   51.3729  155.6149   30.1349 H   0  0  0  0  0  0  0  0  0  0  0  0
   47.6524  158.0292   30.7074 H   0  0  0  0  0  0  0  0  0  0  0  0
   46.4942  159.6795   32.1787 H   0  0  0  0  0  0  0  0  0  0  0  0
   47.7444  161.6448   33.0809 H   0  0  0  0  0  0  0  0  0  0  0  0
   51.1520  162.1900   32.7510 H   0  0  0  0  0  0  0  0  0  0  0  0
  1  2  2  0
  2  3  1  0
  3  4  1  0
  3  5  2  0
  5  6  1  0
  6  7  2  0
  7  8  1  0
  8  9  2  0
  9 10  1  0
 10 11  1  0
 10 12  1  0
  9 13  1  0
 13 14  1  0
 14 15  1  0
 14 16  1  0
 13 17  2  0
  5 18  1  0
 18 19  1  0
 19 20  2  0
 20 21  1  0
 21 22  2  0
 22 23  1  0
 23 24  1  0
 23 25  2  0
 25  2  1  0
 17  6  1  0
 25 19  1  0
  4 26  1  0
  7 27  1  0
  8 28  1  0
 10 29  1  0
 14 30  1  0
 17 31  1  0
 20 32  1  0
 21 33  1  0
 22 34  1  0
 24 35  1  0
M  END
>  <meeko>  (5) 
{"is_sidechain": [false], "free_energy": -9.357, "intermolecular_energy": -11.319, "internal_energy": -0.414}

$$$$
cand_008_out
     RDKit          3D

 35 37  0  0  0  0  0  0  0  0999 V2000
   48.5060  158.1150   31.1700 O   0  0  0  0  0  0  0  0  0  0  0  0
   49.6070  158.2950   30.6550 C   0  0  0  0  0  0  0  0  0  0  0  0
   50.1610  157.3070   29.7000 C   0  0  0  0  0  0  0  0  0  0  0  0
   49.3920  156.1870   29.4370 O   0  0  0  0  0  0  0  0  0  0  0  0
   51.3710  157.5420   29.1610 C   0  0  0  0  0  0  0  0  0  0  0  0
   52.0250  156.6200   28.2080 C   0  0  0  0  0  0  0  0  0  0  0  0
   52.8500  157.0880   27.1800 C   0  0  0  0  0  0  0  0  0  0  0  0
   53.4760  156.1990   26.3030 C   0  0  0  0  0  0  0  0  0  0  0  0
   53.2980  154.8120   26.4340 C   0  0  0  0  0  0  0  0  0  0  0  0
   53.9930  153.8740   25.4720 C   0  0  0  0  0  0  0  0  0  0  0  0
   55.0570  154.4470   24.8390 F   0  0  0  0  0  0  0  0  0  0  0  0
   53.1650  153.4530   24.4760 F   0  0  0  0  0  0  0  0  0  0  0  0
   52.4880  154.3220   27.4820 C   0  0  0  0  0  0  0  0  0  0  0  0
   52.2640  152.8380   27.6730 C   0  0  0  0  0  0  0  0  0  0  0  0
   51.5790  152.5660   28.8200 F   0  0  0  0  0  0  0  0  0  0  0  0
   51.5280  152.2740   26.6730 F   0  0  0  0  0  0  0  0  0  0  0  0
   51.8580  155.2340   28.3500 C   0  0  0  0  0  0  0  0  0  0  0  0
   52.1470  158.6570   29.4540 O   0  0  0  0  0  0  0  0  0  0  0  0
   51.6590  159.5930   30.3300 C   0  0  0  0  0  0  0  0  0  0  0  0
   52.4670  160.7020   30.5860 C   0  0  0  0  0  0  0  0  0  0  0  0
   52.0300  161.6920   31.4680 C   0  0  0  0  0  0  0  0  0  0  0  0
   50.7860  161.5740   32.0930 C   0  0  0  0  0  0  0  0  0  0  0  0
   49.9820  160.4660   31.8360 C   0  0  0  0  0  0  0  0  0  0  0  0
   48.7790  160.4130   32.4820 O   0  0  0  0  0  0  0  0  0  0  0  0
   50.4200  159.4750   30.9520 C   0  0  0  0  0  0  0  0  0  0  0  0
   49.6020  155.6360   28.7100 H   0  0  0  0  0  0  0  0  0  0  0  0
   53.0079  158.1700   27.0606 H   0  0  0  0  0  0  0  0  0  0  0  0
   54.1168  156.5904   25.4992 H   0  0  0  0  0  0  0  0  0  0  0  0
   54.3209  153.0401   26.1101 H   0  0  0  0  0  0  0  0  0  0  0  0
   53.2811  152.4196   27.6937 H   0  0  0  0  0  0  0  0  0  0  0  0
   51.2192  154.8507   29.1593 H   0  0  0  0  0  0  0  0  0  0  0  0
   53.4462  160.7957   30.0937 H   0  0  0  0  0  0  0  0  0  0  0  0
   52.6660  162.5662   31.6712 H   0  0  0  0  0  0  0  0  0  0  0  0
   50.4420  162.3550   32.7870 H   0  0  0  0  0  0  0  0  0  0  0  0
   48.7390  160.1290   33.3740 H   0  0  0  0  0  0  0  0  0  0  0  0
  1  2  2  0
  2  3  1  0
  3  4  1  0
  3  5  2  0
  5  6  1  0
  6  7  2  0
  7  8  1  0
  8  9  2  0
  9 10  1  0
 10 11  1  0
 10 12  1  0
  9 13  1  0
 13 14  1  0
 14 15  1  0
 14 16  1  0
 13 17  2  0
  5 18  1  0
 18 19  1  0
 19 20  2  0
 20 21  1  0
 21 22  2  0
 22 23  1  0
 23 24  1  0
 23 25  2  0
 25  2  1  0
 17  6  1  0
 25 19  1  0
  4 26  1  0
  7 27  1  0
  8 28  1  0
 10 29  1  0
 14 30  1  0
 17 31  1  0
 20 32  1  0
 21 33  1  0
 22 34  1  0
 24 35  1  0
M  END
>  <meeko>  (6) 
{"is_sidechain": [false], "free_energy": -8.966, "intermolecular_energy": -11.048, "internal_energy": -0.202}

$$$$
cand_008_out
     RDKit          3D

 35 37  0  0  0  0  0  0  0  0999 V2000
   54.6000  155.2610   25.1800 O   0  0  0  0  0  0  0  0  0  0  0  0
   53.7170  154.8830   25.9470 C   0  0  0  0  0  0  0  0  0  0  0  0
   53.0070  155.8540   26.8120 C   0  0  0  0  0  0  0  0  0  0  0  0
   53.3950  157.1800   26.7210 O   0  0  0  0  0  0  0  0  0  0  0  0
   52.0490  155.3980   27.6390 C   0  0  0  0  0  0  0  0  0  0  0  0
   51.2850  156.2730   28.5540 C   0  0  0  0  0  0  0  0  0  0  0  0
   50.0900  155.8540   29.1470 C   0  0  0  0  0  0  0  0  0  0  0  0
   49.3950  156.6880   30.0260 C   0  0  0  0  0  0  0  0  0  0  0  0
   49.8800  157.9680   30.3410 C   0  0  0  0  0  0  0  0  0  0  0  0
   49.1080  158.8460   31.3000 C   0  0  0  0  0  0  0  0  0  0  0  0
   48.4450  158.1390   32.2590 F   0  0  0  0  0  0  0  0  0  0  0  0
   48.1510  159.5810   30.6660 F   0  0  0  0  0  0  0  0  0  0  0  0
   51.0990  158.3970   29.7690 C   0  0  0  0  0  0  0  0  0  0  0  0
   51.6710  159.7640   30.0760 C   0  0  0  0  0  0  0  0  0  0  0  0
   50.8460  160.7690   29.6660 F   0  0  0  0  0  0  0  0  0  0  0  0
   51.8620  159.9780   31.4090 F   0  0  0  0  0  0  0  0  0  0  0  0
   51.7810  157.5450   28.8790 C   0  0  0  0  0  0  0  0  0  0  0  0
   51.6870  154.0600   27.7430 O   0  0  0  0  0  0  0  0  0  0  0  0
   52.3210  153.1380   26.9500 C   0  0  0  0  0  0  0  0  0  0  0  0
   51.9180  151.8080   27.0790 C   0  0  0  0  0  0  0  0  0  0  0  0
   52.5240  150.8190   26.3020 C   0  0  0  0  0  0  0  0  0  0  0  0
   53.5320  151.1590   25.3960 C   0  0  0  0  0  0  0  0  0  0  0  0
   53.9320  152.4870   25.2700 C   0  0  0  0  0  0  0  0  0  0  0  0
   54.9240  152.7500   24.3670 O   0  0  0  0  0  0  0  0  0  0  0  0
   53.3250  153.4770   26.0480 C   0  0  0  0  0  0  0  0  0  0  0  0
   53.7240  157.6240   27.4770 H   0  0  0  0  0  0  0  0  0  0  0  0
   49.6919  154.8544   28.9183 H   0  0  0  0  0  0  0  0  0  0  0  0
   48.4552  156.3376   30.4776 H   0  0  0  0  0  0  0  0  0  0  0  0
   49.8812  159.4848   31.7517 H   0  0  0  0  0  0  0  0  0  0  0  0
   52.6298  159.7745   29.5369 H   0  0  0  0  0  0  0  0  0  0  0  0
   52.7250  157.8846   28.4278 H   0  0  0  0  0  0  0  0  0  0  0  0
   51.1243  151.5395   27.7917 H   0  0  0  0  0  0  0  0  0  0  0  0
   52.2074  149.7704   26.4032 H   0  0  0  0  0  0  0  0  0  0  0  0
   54.0086  150.3794   24.7836 H   0  0  0  0  0  0  0  0  0  0  0  0
   55.7180  152.2520   24.3850 H   0  0  0  0  0  0  0  0  0  0  0  0
  1  2  2  0
  2  3  1  0
  3  4  1  0
  3  5  2  0
  5  6  1  0
  6  7  2  0
  7  8  1  0
  8  9  2  0
  9 10  1  0
 10 11  1  0
 10 12  1  0
  9 13  1  0
 13 14  1  0
 14 15  1  0
 14 16  1  0
 13 17  2  0
  5 18  1  0
 18 19  1  0
 19 20  2  0
 20 21  1  0
 21 22  2  0
 22 23  1  0
 23 24  1  0
 23 25  2  0
 25  2  1  0
 17  6  1  0
 25 19  1  0
  4 26  1  0
  7 27  1  0
  8 28  1  0
 10 29  1  0
 14 30  1  0
 17 31  1  0
 20 32  1  0
 21 33  1  0
 22 34  1  0
 24 35  1  0
M  END
>  <meeko>  (7) 
{"is_sidechain": [false], "free_energy": -8.222, "intermolecular_energy": -10.479, "internal_energy": 0.146}

$$$$
cand_008_out
     RDKit          3D

 35 37  0  0  0  0  0  0  0  0999 V2000
   54.0240  154.6510   24.9480 O   0  0  0  0  0  0  0  0  0  0  0  0
   53.3390  154.5720   25.9660 C   0  0  0  0  0  0  0  0  0  0  0  0
   53.0080  155.7880   26.7450 C   0  0  0  0  0  0  0  0  0  0  0  0
   53.5140  156.9900   26.2820 O   0  0  0  0  0  0  0  0  0  0  0  0
   52.2560  155.6570   27.8540 C   0  0  0  0  0  0  0  0  0  0  0  0
   51.8760  156.7970   28.7130 C   0  0  0  0  0  0  0  0  0  0  0  0
   52.7540  157.8560   28.9640 C   0  0  0  0  0  0  0  0  0  0  0  0
   52.3670  158.9360   29.7620 C   0  0  0  0  0  0  0  0  0  0  0  0
   51.0830  158.9880   30.3280 C   0  0  0  0  0  0  0  0  0  0  0  0
   50.6910  160.1720   31.1830 C   0  0  0  0  0  0  0  0  0  0  0  0
   49.9940  161.1230   30.4960 F   0  0  0  0  0  0  0  0  0  0  0  0
   51.7760  160.8190   31.6940 F   0  0  0  0  0  0  0  0  0  0  0  0
   50.1740  157.9390   30.0650 C   0  0  0  0  0  0  0  0  0  0  0  0
   48.7780  157.9460   30.6450 C   0  0  0  0  0  0  0  0  0  0  0  0
   48.7450  158.4880   31.8960 F   0  0  0  0  0  0  0  0  0  0  0  0
   47.8960  158.6830   29.9110 F   0  0  0  0  0  0  0  0  0  0  0  0
   50.5870  156.8550   29.2650 C   0  0  0  0  0  0  0  0  0  0  0  0
   51.7770  154.4410   28.3260 O   0  0  0  0  0  0  0  0  0  0  0  0
   52.0610  153.2980   27.6220 C   0  0  0  0  0  0  0  0  0  0  0  0
   51.5490  152.1010   28.1250 C   0  0  0  0  0  0  0  0  0  0  0  0
   51.8020  150.9010   27.4580 C   0  0  0  0  0  0  0  0  0  0  0  0
   52.5660  150.8970   26.2880 C   0  0  0  0  0  0  0  0  0  0  0  0
   53.0750  152.0930   25.7880 C   0  0  0  0  0  0  0  0  0  0  0  0
   53.8150  152.0180   24.6410 O   0  0  0  0  0  0  0  0  0  0  0  0
   52.8210  153.2940   26.4560 C   0  0  0  0  0  0  0  0  0  0  0  0
   52.9300  157.6720   26.0180 H   0  0  0  0  0  0  0  0  0  0  0  0
   53.7634  157.8387   28.5272 H   0  0  0  0  0  0  0  0  0  0  0  0
   53.0768  159.7553   29.9490 H   0  0  0  0  0  0  0  0  0  0  0  0
   50.0695  159.7284   31.9748 H   0  0  0  0  0  0  0  0  0  0  0  0
   48.4907  156.8842   30.6502 H   0  0  0  0  0  0  0  0  0  0  0  0
   49.8817  156.0341   29.0683 H   0  0  0  0  0  0  0  0  0  0  0  0
   50.9470  152.1031   29.0456 H   0  0  0  0  0  0  0  0  0  0  0  0
   51.3993  149.9571   27.8541 H   0  0  0  0  0  0  0  0  0  0  0  0
   52.7650  149.9511   25.7630 H   0  0  0  0  0  0  0  0  0  0  0  0
   54.7440  151.9080   24.6890 H   0  0  0  0  0  0  0  0  0  0  0  0
  1  2  2  0
  2  3  1  0
  3  4  1  0
  3  5  2  0
  5  6  1  0
  6  7  2  0
  7  8  1  0
  8  9  2  0
  9 10  1  0
 10 11  1  0
 10 12  1  0
  9 13  1  0
 13 14  1  0
 14 15  1  0
 14 16  1  0
 13 17  2  0
  5 18  1  0
 18 19  1  0
 19 20  2  0
 20 21  1  0
 21 22  2  0
 22 23  1  0
 23 24  1  0
 23 25  2  0
 25  2  1  0
 17  6  1  0
 25 19  1  0
  4 26  1  0
  7 27  1  0
  8 28  1  0
 10 29  1  0
 14 30  1  0
 17 31  1  0
 20 32  1  0
 21 33  1  0
 22 34  1  0
 24 35  1  0
M  END
>  <meeko>  (8) 
{"is_sidechain": [false], "free_energy": -8.185, "intermolecular_energy": -10.335, "internal_energy": 0.048}

$$$$
