cand_054_out
     RDKit          3D

 46 48  0  0  0  0  0  0  0  0999 V2000
   54.4400  153.3570   23.8280 C   0  0  0  0  0  0  0  0  0  0  0  0
   54.3660  154.0510   25.1810 C   0  0  0  0  0  0  0  0  0  0  0  0
   53.1210  154.8330   25.3200 N   0  0  0  0  0  0  0  0  0  0  0  0
   53.2000  156.2170   24.8100 C   0  0  0  0  0  0  0  0  0  0  0  0
   54.6540  156.6500   24.6920 C   0  0  0  0  0  0  0  0  0  0  0  0
   52.5970  154.8300   26.6410 C   0  0  0  0  0  0  0  0  0  0  0  0
   52.2690  156.0220   27.3150 C   0  0  0  0  0  0  0  0  0  0  0  0
   51.7330  156.0100   28.6120 C   0  0  0  0  0  0  0  0  0  0  0  0
   51.4120  157.2630   29.3300 C   0  0  0  0  0  0  0  0  0  0  0  0
   50.0980  157.3030   29.7830 O   0  0  0  0  0  0  0  0  0  0  0  0
   49.6660  158.4090   30.4670 C   0  0  0  0  0  0  0  0  0  0  0  0
   48.3450  158.4010   30.9160 C   0  0  0  0  0  0  0  0  0  0  0  0
   47.8420  159.4980   31.6190 C   0  0  0  0  0  0  0  0  0  0  0  0
   48.6580  160.6030   31.8700 C   0  0  0  0  0  0  0  0  0  0  0  0
   49.9750  160.6090   31.4200 C   0  0  0  0  0  0  0  0  0  0  0  0
   50.7190  161.7230   31.7000 O   0  0  0  0  0  0  0  0  0  0  0  0
   50.4790  159.5100   30.7180 C   0  0  0  0  0  0  0  0  0  0  0  0
   51.8580  159.4760   30.2280 C   0  0  0  0  0  0  0  0  0  0  0  0
   52.6350  160.4120   30.4040 O   0  0  0  0  0  0  0  0  0  0  0  0
   52.2970  158.2620   29.5030 C   0  0  0  0  0  0  0  0  0  0  0  0
   53.5980  158.2460   29.0330 O   0  0  0  0  0  0  0  0  0  0  0  0
   51.5370  154.7760   29.2430 C   0  0  0  0  0  0  0  0  0  0  0  0
   51.8470  153.5830   28.5860 C   0  0  0  0  0  0  0  0  0  0  0  0
   52.3690  153.5970   27.2860 C   0  0  0  0  0  0  0  0  0  0  0  0
   52.6870  152.2970   26.6000 C   0  0  0  0  0  0  0  0  0  0  0  0
   54.5555  152.2734   23.9776 H   0  0  0  0  0  0  0  0  0  0  0  0
   53.5159  153.5529   23.2644 H   0  0  0  0  0  0  0  0  0  0  0  0
   55.3020  153.7433   23.2644 H   0  0  0  0  0  0  0  0  0  0  0  0
   54.4013  153.2908   25.9752 H   0  0  0  0  0  0  0  0  0  0  0  0
   55.2185  154.7414   25.2622 H   0  0  0  0  0  0  0  0  0  0  0  0
   52.7242  156.2672   23.8195 H   0  0  0  0  0  0  0  0  0  0  0  0
   52.6807  156.8882   25.5099 H   0  0  0  0  0  0  0  0  0  0  0  0
   55.0814  156.7773   25.6975 H   0  0  0  0  0  0  0  0  0  0  0  0
   55.2222  155.8821   24.1466 H   0  0  0  0  0  0  0  0  0  0  0  0
   54.7095  157.6036   24.1466 H   0  0  0  0  0  0  0  0  0  0  0  0
   52.4370  156.9861   26.8127 H   0  0  0  0  0  0  0  0  0  0  0  0
   47.7007  157.5320   30.7166 H   0  0  0  0  0  0  0  0  0  0  0  0
   46.8014  159.4915   31.9755 H   0  0  0  0  0  0  0  0  0  0  0  0
   48.2606  161.4672   32.4224 H   0  0  0  0  0  0  0  0  0  0  0  0
   51.0760  162.2370   31.0010 H   0  0  0  0  0  0  0  0  0  0  0  0
   54.1930  158.9250   29.2800 H   0  0  0  0  0  0  0  0  0  0  0  0
   51.1349  154.7455   30.2664 H   0  0  0  0  0  0  0  0  0  0  0  0
   51.6795  152.6222   29.0948 H   0  0  0  0  0  0  0  0  0  0  0  0
   52.8769  151.5205   27.3557 H   0  0  0  0  0  0  0  0  0  0  0  0
   51.8359  151.9964   25.9713 H   0  0  0  0  0  0  0  0  0  0  0  0
   53.5808  152.4232   25.9713 H   0  0  0  0  0  0  0  0  0  0  0  0
  1  2  1  0
  2  3  1  0
  3  4  1  0
  4  5  1  0
  3  6  1  0
  6  7  2  0
  7  8  1  0
  8  9  1  0
  9 10  1  0
 10 11  1  0
 11 12  2  0
 12 13  1  0
 13 14  2  0
 14 15  1  0
 15 16  1  0
 15 17  2  0
 17 18  1  0
 18 19  2  0
 18 20  1  0
 20 21  1  0
  8 22  2  0
 22 23  1  0
 23 24  2  0
 24 25  1  0
 24  6  1  0
 20  9  2  0
 17 11  1  0
  1 26  1  0
  1 27  1  0
  1 28  1  0
  2 29  1  0
  2 30  1  0
  4 31  1  0
  4 32  1  0
  5 33  1  0
  5 34  1  0
  5 35  1  0
  7 36  1  0
 12 37  1  0
 13 38  1  0
 14 39  1  0
 16 40  1  0
 21 41  1  0
 22 42  1  0
 23 43  1  0
 25 44  1  0
 25 45  1  0
 25 46  1  0
M  END
>  <meeko>  (1) 
{"is_sidechain": [false], "free_energy": -10.309, "intermolecular_energy": -13.323, "internal_energy": 0.479}

$$$$
cand_054_out
     RDKit          3D

 46 48  0  0  0  0  0  0  0  0999 V2000
   49.2540  160.1640   33.7690 C   0  0  0  0  0  0  0  0  0  0  0  0
   48.8930  159.0790   32.7640 C   0  0  0  0  0  0  0  0  0  0  0  0
   48.9840  159.5760   31.3760 N   0  0  0  0  0  0  0  0  0  0  0  0
   47.8720  159.1600   30.4970 C   0  0  0  0  0  0  0  0  0  0  0  0
   46.6260  159.9780   30.8050 C   0  0  0  0  0  0  0  0  0  0  0  0
   50.2290  159.2920   30.7540 C   0  0  0  0  0  0  0  0  0  0  0  0
   50.4660  158.0780   30.0820 C   0  0  0  0  0  0  0  0  0  0  0  0
   51.6910  157.8120   29.4530 C   0  0  0  0  0  0  0  0  0  0  0  0
   51.9490  156.5260   28.7690 C   0  0  0  0  0  0  0  0  0  0  0  0
   52.4330  156.6910   27.4760 O   0  0  0  0  0  0  0  0  0  0  0  0
   52.7150  155.5780   26.7260 C   0  0  0  0  0  0  0  0  0  0  0  0
   53.2110  155.7900   25.4400 C   0  0  0  0  0  0  0  0  0  0  0  0
   53.5190  154.6990   24.6230 C   0  0  0  0  0  0  0  0  0  0  0  0
   53.3270  153.3970   25.0930 C   0  0  0  0  0  0  0  0  0  0  0  0
   52.8310  153.1900   26.3770 C   0  0  0  0  0  0  0  0  0  0  0  0
   52.6690  151.8900   26.7730 O   0  0  0  0  0  0  0  0  0  0  0  0
   52.5260  154.2820   27.1940 C   0  0  0  0  0  0  0  0  0  0  0  0
   52.0030  154.1070   28.5500 C   0  0  0  0  0  0  0  0  0  0  0  0
   51.8010  152.9940   29.0320 O   0  0  0  0  0  0  0  0  0  0  0  0
   51.7180  155.3280   29.3370 C   0  0  0  0  0  0  0  0  0  0  0  0
   51.2120  155.1510   30.6120 O   0  0  0  0  0  0  0  0  0  0  0  0
   52.6980  158.7820   29.5140 C   0  0  0  0  0  0  0  0  0  0  0  0
   52.4780  159.9970   30.1670 C   0  0  0  0  0  0  0  0  0  0  0  0
   51.2490  160.2650   30.7830 C   0  0  0  0  0  0  0  0  0  0  0  0
   51.0360  161.5850   31.4730 C   0  0  0  0  0  0  0  0  0  0  0  0
   49.1248  159.7757   34.7900 H   0  0  0  0  0  0  0  0  0  0  0  0
   50.3012  160.4666   33.6216 H   0  0  0  0  0  0  0  0  0  0  0  0
   48.5968  161.0337   33.6216 H   0  0  0  0  0  0  0  0  0  0  0  0
   49.5852  158.2330   32.8870 H   0  0  0  0  0  0  0  0  0  0  0  0
   47.8553  158.7658   32.9515 H   0  0  0  0  0  0  0  0  0  0  0  0
   48.1600  159.3175   29.4471 H   0  0  0  0  0  0  0  0  0  0  0  0
   47.6553  158.0956   30.6707 H   0  0  0  0  0  0  0  0  0  0  0  0
   46.5013  160.0599   31.8948 H   0  0  0  0  0  0  0  0  0  0  0  0
   46.7310  160.9835   30.3714 H   0  0  0  0  0  0  0  0  0  0  0  0
   45.7452  159.4818   30.3714 H   0  0  0  0  0  0  0  0  0  0  0  0
   49.6705  157.3190   30.0494 H   0  0  0  0  0  0  0  0  0  0  0  0
   53.3596  156.8149   25.0692 H   0  0  0  0  0  0  0  0  0  0  0  0
   53.9128  154.8651   23.6094 H   0  0  0  0  0  0  0  0  0  0  0  0
   53.5673  152.5377   24.4497 H   0  0  0  0  0  0  0  0  0  0  0  0
   52.3520  151.6980   27.6350 H   0  0  0  0  0  0  0  0  0  0  0  0
   50.2870  155.0870   30.7440 H   0  0  0  0  0  0  0  0  0  0  0  0
   53.6725  158.5856   29.0430 H   0  0  0  0  0  0  0  0  0  0  0  0
   53.2782  160.7511   30.1978 H   0  0  0  0  0  0  0  0  0  0  0  0
   51.0599  161.4372   32.5628 H   0  0  0  0  0  0  0  0  0  0  0  0
   51.8329  162.2845   31.1803 H   0  0  0  0  0  0  0  0  0  0  0  0
   50.0595  161.9984   31.1803 H   0  0  0  0  0  0  0  0  0  0  0  0
  1  2  1  0
  2  3  1  0
  3  4  1  0
  4  5  1  0
  3  6  1  0
  6  7  2  0
  7  8  1  0
  8  9  1  0
  9 10  1  0
 10 11  1  0
 11 12  2  0
 12 13  1  0
 13 14  2  0
 14 15  1  0
 15 16  1  0
 15 17  2  0
 17 18  1  0
 18 19  2  0
 18 20  1  0
 20 21  1  0
  8 22  2  0
 22 23  1  0
 23 24  2  0
 24 25  1  0
 24  6  1  0
 20  9  2  0
 17 11  1  0
  1 26  1  0
  1 27  1  0
  1 28  1  0
  2 29  1  0
  2 30  1  0
  4 31  1  0
  4 32  1  0
  5 33  1  0
  5 34  1  0
  5 35  1  0
  7 36  1  0
 12 37  1  0
 13 38  1  0
 14 39  1  0
 16 40  1  0
 21 41  1  0
 22 42  1  0
 23 43  1  0
 25 44  1  0
 25 45  1  0
 25 46  1  0
M  END
>  <meeko>  (2) 
{"is_sidechain": [false], "free_energy": -9.044, "intermolecular_energy": -10.962, "internal_energy": -0.247}

$$$$
cand_054_out
     RDKit          3D

 46 48  0  0  0  0  0  0  0  0999 V2000
   55.2260  156.7610   24.4570 C   0  0  0  0  0  0  0  0  0  0  0  0
   53.9230  156.5640   25.2200 C   0  0  0  0  0  0  0  0  0  0  0  0
   53.7110  155.1450   25.5710 N   0  0  0  0  0  0  0  0  0  0  0  0
   53.0920  154.3310   24.5060 C   0  0  0  0  0  0  0  0  0  0  0  0
   54.1660  153.6060   23.7070 C   0  0  0  0  0  0  0  0  0  0  0  0
   53.0100  154.9640   26.7930 C   0  0  0  0  0  0  0  0  0  0  0  0
   52.3510  156.0280   27.4380 C   0  0  0  0  0  0  0  0  0  0  0  0
   51.6420  155.8390   28.6340 C   0  0  0  0  0  0  0  0  0  0  0  0
   50.9720  156.9620   29.3250 C   0  0  0  0  0  0  0  0  0  0  0  0
   51.8410  158.0050   29.6250 O   0  0  0  0  0  0  0  0  0  0  0  0
   51.3500  159.1120   30.2680 C   0  0  0  0  0  0  0  0  0  0  0  0
   52.2530  160.1410   30.5370 C   0  0  0  0  0  0  0  0  0  0  0  0
   51.8180  161.2970   31.1900 C   0  0  0  0  0  0  0  0  0  0  0  0
   50.4810  161.4220   31.5750 C   0  0  0  0  0  0  0  0  0  0  0  0
   49.5830  160.3930   31.3060 C   0  0  0  0  0  0  0  0  0  0  0  0
   48.2890  160.5810   31.7110 O   0  0  0  0  0  0  0  0  0  0  0  0
   50.0180  159.2380   30.6510 C   0  0  0  0  0  0  0  0  0  0  0  0
   49.1060  158.1340   30.3490 C   0  0  0  0  0  0  0  0  0  0  0  0
   47.9180  158.1660   30.6620 O   0  0  0  0  0  0  0  0  0  0  0  0
   49.6650  156.9570   29.6450 C   0  0  0  0  0  0  0  0  0  0  0  0
   48.7970  155.9140   29.3760 O   0  0  0  0  0  0  0  0  0  0  0  0
   51.6080  154.5570   29.1950 C   0  0  0  0  0  0  0  0  0  0  0  0
   52.2470  153.4870   28.5640 C   0  0  0  0  0  0  0  0  0  0  0  0
   52.9430  153.6760   27.3630 C   0  0  0  0  0  0  0  0  0  0  0  0
   53.6150  152.5040   26.7010 C   0  0  0  0  0  0  0  0  0  0  0  0
   56.0536  156.8861   25.1708 H   0  0  0  0  0  0  0  0  0  0  0  0
   55.4171  155.8815   23.8245 H   0  0  0  0  0  0  0  0  0  0  0  0
   55.1486  157.6576   23.8245 H   0  0  0  0  0  0  0  0  0  0  0  0
   53.9562  157.1598   26.1441 H   0  0  0  0  0  0  0  0  0  0  0  0
   53.0928  156.8880   24.5751 H   0  0  0  0  0  0  0  0  0  0  0  0
   52.4159  153.5917   24.9603 H   0  0  0  0  0  0  0  0  0  0  0  0
   52.5275  154.9916   23.8316 H   0  0  0  0  0  0  0  0  0  0  0  0
   54.8758  153.1268   24.3973 H   0  0  0  0  0  0  0  0  0  0  0  0
   53.6966  152.8392   23.0732 H   0  0  0  0  0  0  0  0  0  0  0  0
   54.7016  154.3281   23.0732 H   0  0  0  0  0  0  0  0  0  0  0  0
   52.3930  157.0331   26.9930 H   0  0  0  0  0  0  0  0  0  0  0  0
   53.3062  160.0422   30.2353 H   0  0  0  0  0  0  0  0  0  0  0  0
   52.5289  162.1094   31.4011 H   0  0  0  0  0  0  0  0  0  0  0  0
   50.1385  162.3318   32.0897 H   0  0  0  0  0  0  0  0  0  0  0  0
   47.8350  159.8960   32.1620 H   0  0  0  0  0  0  0  0  0  0  0  0
   48.7300  155.1950   29.9720 H   0  0  0  0  0  0  0  0  0  0  0  0
   51.0731  154.3906   30.1416 H   0  0  0  0  0  0  0  0  0  0  0  0
   52.2032  152.4848   29.0152 H   0  0  0  0  0  0  0  0  0  0  0  0
   54.0058  151.8225   27.4710 H   0  0  0  0  0  0  0  0  0  0  0  0
   52.8861  151.9695   26.0740 H   0  0  0  0  0  0  0  0  0  0  0  0
   54.4444  152.8631   26.0740 H   0  0  0  0  0  0  0  0  0  0  0  0
  1  2  1  0
  2  3  1  0
  3  4  1  0
  4  5  1  0
  3  6  1  0
  6  7  2  0
  7  8  1  0
  8  9  1  0
  9 10  1  0
 10 11  1  0
 11 12  2  0
 12 13  1  0
 13 14  2  0
 14 15  1  0
 15 16  1  0
 15 17  2  0
 17 18  1  0
 18 19  2  0
 18 20  1  0
 20 21  1  0
  8 22  2  0
 22 23  1  0
 23 24  2  0
 24 25  1  0
 24  6  1  0
 20  9  2  0
 17 11  1  0
  1 26  1  0
  1 27  1  0
  1 28  1  0
  2 29  1  0
  2 30  1  0
  4 31  1  0
  4 32  1  0
  5 33  1  0
  5 34  1  0
  5 35  1  0
  7 36  1  0
 12 37  1  0
 13 38  1  0
 14 39  1  0
 16 40  1  0
 21 41  1  0
 22 42  1  0
 23 43  1  0
 25 44  1  0
 25 45  1  0
 25 46  1  0
M  END
>  <meeko>  (3) 
{"is_sidechain": [false], "free_energy": -8.756, "intermolecular_energy": -11.329, "internal_energy": 0.493}

$$$$
cand_054_out
     RDKit          3D

 46 48  0  0  0  0  0  0  0  0999 V2000
   51.0150  161.6030   32.2050 C   0  0  0  0  0  0  0  0  0  0  0  0
   51.6440  160.4600   31.4200 C   0  0  0  0  0  0  0  0  0  0  0  0
   50.8930  160.1790   30.1790 N   0  0  0  0  0  0  0  0  0  0  0  0
   49.6430  160.9500   30.0250 C   0  0  0  0  0  0  0  0  0  0  0  0
   49.0990  160.7910   28.6120 C   0  0  0  0  0  0  0  0  0  0  0  0
   50.6410  158.7960   29.9730 C   0  0  0  0  0  0  0  0  0  0  0  0
   51.4630  158.0030   29.1500 C   0  0  0  0  0  0  0  0  0  0  0  0
   51.2210  156.6340   28.9670 C   0  0  0  0  0  0  0  0  0  0  0  0
   52.0690  155.8070   28.0820 C   0  0  0  0  0  0  0  0  0  0  0  0
   52.6030  156.5280   27.0190 O   0  0  0  0  0  0  0  0  0  0  0  0
   53.4110  155.8820   26.1190 C   0  0  0  0  0  0  0  0  0  0  0  0
   53.9370  156.6470   25.0780 C   0  0  0  0  0  0  0  0  0  0  0  0
   54.7670  156.0510   24.1260 C   0  0  0  0  0  0  0  0  0  0  0  0
   55.0690  154.6890   24.2150 C   0  0  0  0  0  0  0  0  0  0  0  0
   54.5420  153.9290   25.2550 C   0  0  0  0  0  0  0  0  0  0  0  0
   54.8780  152.6030   25.2820 O   0  0  0  0  0  0  0  0  0  0  0  0
   53.7130  154.5270   26.2080 C   0  0  0  0  0  0  0  0  0  0  0  0
   53.1390  153.7640   27.3170 C   0  0  0  0  0  0  0  0  0  0  0  0
   53.3520  152.5610   27.4600 O   0  0  0  0  0  0  0  0  0  0  0  0
   52.2790  154.4920   28.2770 C   0  0  0  0  0  0  0  0  0  0  0  0
   51.7320  153.7580   29.3140 O   0  0  0  0  0  0  0  0  0  0  0  0
   50.1220  156.0570   29.6150 C   0  0  0  0  0  0  0  0  0  0  0  0
   49.3010  156.8250   30.4440 C   0  0  0  0  0  0  0  0  0  0  0  0
   49.5540  158.1890   30.6360 C   0  0  0  0  0  0  0  0  0  0  0  0
   48.6580  158.9910   31.5400 C   0  0  0  0  0  0  0  0  0  0  0  0
   51.1213  161.4098   33.2827 H   0  0  0  0  0  0  0  0  0  0  0  0
   51.5215  162.5455   31.9497 H   0  0  0  0  0  0  0  0  0  0  0  0
   49.9478  161.6794   31.9497 H   0  0  0  0  0  0  0  0  0  0  0  0
   52.6774  160.7317   31.1589 H   0  0  0  0  0  0  0  0  0  0  0  0
   51.6238  159.5572   32.0481 H   0  0  0  0  0  0  0  0  0  0  0  0
   48.8976  160.5815   30.7451 H   0  0  0  0  0  0  0  0  0  0  0  0
   49.8515  162.0137   30.2122 H   0  0  0  0  0  0  0  0  0  0  0  0
   48.0441  160.4827   28.6578 H   0  0  0  0  0  0  0  0  0  0  0  0
   49.1780  161.7498   28.0786 H   0  0  0  0  0  0  0  0  0  0  0  0
   49.6819  160.0256   28.0786 H   0  0  0  0  0  0  0  0  0  0  0  0
   52.3172  158.4694   28.6373 H   0  0  0  0  0  0  0  0  0  0  0  0
   53.6984  157.7185   25.0070 H   0  0  0  0  0  0  0  0  0  0  0  0
   55.1834  156.6538   23.3055 H   0  0  0  0  0  0  0  0  0  0  0  0
   55.7218  154.2190   23.4647 H   0  0  0  0  0  0  0  0  0  0  0  0
   54.2120  151.9520   25.3980 H   0  0  0  0  0  0  0  0  0  0  0  0
   51.2500  152.9760   29.1310 H   0  0  0  0  0  0  0  0  0  0  0  0
   49.9031  154.9888   29.4698 H   0  0  0  0  0  0  0  0  0  0  0  0
   48.4466  156.3534   30.9515 H   0  0  0  0  0  0  0  0  0  0  0  0
   48.9040  158.7708   32.5893 H   0  0  0  0  0  0  0  0  0  0  0  0
   48.8065  160.0635   31.3458 H   0  0  0  0  0  0  0  0  0  0  0  0
   47.6084  158.7251   31.3458 H   0  0  0  0  0  0  0  0  0  0  0  0
  1  2  1  0
  2  3  1  0
  3  4  1  0
  4  5  1  0
  3  6  1  0
  6  7  2  0
  7  8  1  0
  8  9  1  0
  9 10  1  0
 10 11  1  0
 11 12  2  0
 12 13  1  0
 13 14  2  0
 14 15  1  0
 15 16  1  0
 15 17  2  0
 17 18  1  0
 18 19  2  0
 18 20  1  0
 20 21  1  0
  8 22  2  0
 22 23  1  0
 23 24  2  0
 24 25  1  0
 24  6  1  0
 20  9  2  0
 17 11  1  0
  1 26  1  0
  1 27  1  0
  1 28  1  0
  2 29  1  0
  2 30  1  0
  4 31  1  0
  4 32  1  0
  5 33  1  0
  5 34  1  0
  5 35  1  0
  7 36  1  0
 12 37  1  0
 13 38  1  0
 14 39  1  0
 16 40  1  0
 21 41  1  0
 22 42  1  0
 23 43  1  0
 25 44  1  0
 25 45  1  0
 25 46  1  0
M  END
>  <meeko>  (4) 
{"is_sidechain": [false], "free_energy": -8.207, "intermolecular_energy": -11.284, "internal_energy": 1.156}

$$$$
