cand_033_out
     RDKit          3D

 44 46  0  0  0  0  0  0  0  0999 V2000
   46.9940  160.0360   31.3390 C   0  0  0  0  0  0  0  0  0  0  0  0
   47.8880  159.2870   30.3650 C   0  0  0  0  0  0  0  0  0  0  0  0
   48.8540  158.3540   31.0980 C   0  0  0  0  0  0  0  0  0  0  0  0
   50.1910  158.2680   30.3950 C   0  0  0  0  0  0  0  0  0  0  0  0
   50.5030  157.0730   29.7140 C   0  0  0  0  0  0  0  0  0  0  0  0
   51.7260  156.8940   29.0530 C   0  0  0  0  0  0  0  0  0  0  0  0
   52.0400  155.6510   28.3190 C   0  0  0  0  0  0  0  0  0  0  0  0
   52.5870  155.8900   27.0630 O   0  0  0  0  0  0  0  0  0  0  0  0
   52.9250  154.8210   26.2720 C   0  0  0  0  0  0  0  0  0  0  0  0
   53.4580  155.1080   25.0140 C   0  0  0  0  0  0  0  0  0  0  0  0
   53.8240  154.0660   24.1590 C   0  0  0  0  0  0  0  0  0  0  0  0
   53.6600  152.7390   24.5630 C   0  0  0  0  0  0  0  0  0  0  0  0
   53.1290  152.4570   25.8190 C   0  0  0  0  0  0  0  0  0  0  0  0
   52.9960  151.1360   26.1500 O   0  0  0  0  0  0  0  0  0  0  0  0
   52.7620  153.4990   26.6730 C   0  0  0  0  0  0  0  0  0  0  0  0
   52.2000  153.2460   28.0010 C   0  0  0  0  0  0  0  0  0  0  0  0
   52.0320  152.1060   28.4290 O   0  0  0  0  0  0  0  0  0  0  0  0
   51.8350  154.4210   28.8260 C   0  0  0  0  0  0  0  0  0  0  0  0
   51.3180  154.1700   30.0830 O   0  0  0  0  0  0  0  0  0  0  0  0
   52.6460  157.9470   29.0670 C   0  0  0  0  0  0  0  0  0  0  0  0
   52.3580  159.1360   29.7410 C   0  0  0  0  0  0  0  0  0  0  0  0
   51.1390  159.3100   30.4190 C   0  0  0  0  0  0  0  0  0  0  0  0
   50.8980  160.6290   31.1170 C   0  0  0  0  0  0  0  0  0  0  0  0
   52.1770  161.4420   31.2560 C   0  0  0  0  0  0  0  0  0  0  0  0
   47.2878  159.7898   32.3700 H   0  0  0  0  0  0  0  0  0  0  0  0
   47.1003  161.1187   31.1760 H   0  0  0  0  0  0  0  0  0  0  0  0
   45.9467  159.7417   31.1760 H   0  0  0  0  0  0  0  0  0  0  0  0
   47.2589  158.6905   29.6879 H   0  0  0  0  0  0  0  0  0  0  0  0
   48.4791  160.0236   29.8011 H   0  0  0  0  0  0  0  0  0  0  0  0
   49.0115  158.7340   32.1182 H   0  0  0  0  0  0  0  0  0  0  0  0
   48.4109  157.3474   31.1162 H   0  0  0  0  0  0  0  0  0  0  0  0
   49.7649  156.2575   29.7012 H   0  0  0  0  0  0  0  0  0  0  0  0
   53.5895  156.1530   24.6967 H   0  0  0  0  0  0  0  0  0  0  0  0
   54.2418  154.2906   23.1665 H   0  0  0  0  0  0  0  0  0  0  0  0
   53.9497  151.9183   23.8903 H   0  0  0  0  0  0  0  0  0  0  0  0
   53.7030  150.5400   25.9960 H   0  0  0  0  0  0  0  0  0  0  0  0
   50.7670  153.4250   30.2230 H   0  0  0  0  0  0  0  0  0  0  0  0
   53.6064  157.8378   28.5418 H   0  0  0  0  0  0  0  0  0  0  0  0
   53.0977  159.9501   29.7412 H   0  0  0  0  0  0  0  0  0  0  0  0
   50.1686  161.2111   30.5346 H   0  0  0  0  0  0  0  0  0  0  0  0
   50.5198  160.4148   32.1275 H   0  0  0  0  0  0  0  0  0  0  0  0
   52.4052  161.5871   32.3222 H   0  0  0  0  0  0  0  0  0  0  0  0
   53.0069  160.9053   30.7731 H   0  0  0  0  0  0  0  0  0  0  0  0
   52.0433  162.4213   30.7731 H   0  0  0  0  0  0  0  0  0  0  0  0
  1  2  1  0
  2  3  1  0
  3  4  1  0
  4  5  2  0
  5  6  1  0
  6  7  1  0
  7  8  1  0
  8  9  1  0
  9 10  2  0
 10 11  1  0
 11 12  2  0
 12 13  1  0
 13 14  1  0
 13 15  2  0
 15 16  1  0
 16 17  2  0
 16 18  1  0
 18 19  1  0
  6 20  2  0
 20 21  1  0
 21 22  2  0
 22 23  1  0
 23 24  1  0
 22  4  1  0
 18  7  2  0
 15  9  1  0
  1 25  1  0
  1 26  1  0
  1 27  1  0
  2 28  1  0
  2 29  1  0
  3 30  1  0
  3 31  1  0
  5 32  1  0
 10 33  1  0
 11 34  1  0
 12 35  1  0
 14 36  1  0
 19 37  1  0
 20 38  1  0
 21 39  1  0
 23 40  1  0
 23 41  1  0
 24 42  1  0
 24 43  1  0
 24 44  1  0
M  END
>  <meeko>  (1) 
{"is_sidechain": [false], "free_energy": -10.359, "intermolecular_energy": -13.387, "internal_energy": -0.355}

$$$$
cand_033_out
     RDKit          3D

 44 46  0  0  0  0  0  0  0  0999 V2000
   53.9670  162.2270   31.1680 C   0  0  0  0  0  0  0  0  0  0  0  0
   52.8820  161.2090   31.4780 C   0  0  0  0  0  0  0  0  0  0  0  0
   51.8130  161.1810   30.3830 C   0  0  0  0  0  0  0  0  0  0  0  0
   51.0900  159.8530   30.3410 C   0  0  0  0  0  0  0  0  0  0  0  0
   51.6890  158.7980   29.6210 C   0  0  0  0  0  0  0  0  0  0  0  0
   51.0830  157.5390   29.5080 C   0  0  0  0  0  0  0  0  0  0  0  0
   51.7250  156.4280   28.7750 C   0  0  0  0  0  0  0  0  0  0  0  0
   52.2670  156.8260   27.5580 O   0  0  0  0  0  0  0  0  0  0  0  0
   52.8940  155.8920   26.7730 C   0  0  0  0  0  0  0  0  0  0  0  0
   53.4100  156.3320   25.5540 C   0  0  0  0  0  0  0  0  0  0  0  0
   54.0610  155.4320   24.7070 C   0  0  0  0  0  0  0  0  0  0  0  0
   54.1970  154.0930   25.0810 C   0  0  0  0  0  0  0  0  0  0  0  0
   53.6810  153.6570   26.2980 C   0  0  0  0  0  0  0  0  0  0  0  0
   53.8490  152.3340   26.6020 O   0  0  0  0  0  0  0  0  0  0  0  0
   53.0290  154.5580   27.1440 C   0  0  0  0  0  0  0  0  0  0  0  0
   52.4720  154.1410   28.4330 C   0  0  0  0  0  0  0  0  0  0  0  0
   52.5570  152.9810   28.8330 O   0  0  0  0  0  0  0  0  0  0  0  0
   51.7920  155.1710   29.2510 C   0  0  0  0  0  0  0  0  0  0  0  0
   51.2810  154.7680   30.4710 O   0  0  0  0  0  0  0  0  0  0  0  0
   49.8560  157.3360   30.1460 C   0  0  0  0  0  0  0  0  0  0  0  0
   49.2440  158.3710   30.8590 C   0  0  0  0  0  0  0  0  0  0  0  0
   49.8420  159.6380   30.9580 C   0  0  0  0  0  0  0  0  0  0  0  0
   49.1220  160.7030   31.7540 C   0  0  0  0  0  0  0  0  0  0  0  0
   49.3660  160.5580   33.2490 C   0  0  0  0  0  0  0  0  0  0  0  0
   54.3830  162.6174   32.1085 H   0  0  0  0  0  0  0  0  0  0  0  0
   54.7662  161.7453   30.5856 H   0  0  0  0  0  0  0  0  0  0  0  0
   53.5371  163.0552   30.5856 H   0  0  0  0  0  0  0  0  0  0  0  0
   53.3392  160.2117   31.5574 H   0  0  0  0  0  0  0  0  0  0  0  0
   52.4002  161.4941   32.4249 H   0  0  0  0  0  0  0  0  0  0  0  0
   51.0816  161.9791   30.5783 H   0  0  0  0  0  0  0  0  0  0  0  0
   52.3109  161.3312   29.4137 H   0  0  0  0  0  0  0  0  0  0  0  0
   52.6604  158.9684   29.1338 H   0  0  0  0  0  0  0  0  0  0  0  0
   53.3043  157.3867   25.2600 H   0  0  0  0  0  0  0  0  0  0  0  0
   54.4668  155.7779   23.7449 H   0  0  0  0  0  0  0  0  0  0  0  0
   54.7110  153.3844   24.4149 H   0  0  0  0  0  0  0  0  0  0  0  0
   54.7090  151.9910   26.7450 H   0  0  0  0  0  0  0  0  0  0  0  0
   50.3560  154.7820   30.6190 H   0  0  0  0  0  0  0  0  0  0  0  0
   49.3673  156.3523   30.0865 H   0  0  0  0  0  0  0  0  0  0  0  0
   48.2771  158.1900   31.3512 H   0  0  0  0  0  0  0  0  0  0  0  0
   49.4794  161.6915   31.4298 H   0  0  0  0  0  0  0  0  0  0  0  0
   48.0427  160.5919   31.5729 H   0  0  0  0  0  0  0  0  0  0  0  0
   48.5489  161.0436   33.8027 H   0  0  0  0  0  0  0  0  0  0  0  0
   49.4039  159.4907   33.5125 H   0  0  0  0  0  0  0  0  0  0  0  0
   50.3216  161.0349   33.5125 H   0  0  0  0  0  0  0  0  0  0  0  0
  1  2  1  0
  2  3  1  0
  3  4  1  0
  4  5  2  0
  5  6  1  0
  6  7  1  0
  7  8  1  0
  8  9  1  0
  9 10  2  0
 10 11  1  0
 11 12  2  0
 12 13  1  0
 13 14  1  0
 13 15  2  0
 15 16  1  0
 16 17  2  0
 16 18  1  0
 18 19  1  0
  6 20  2  0
 20 21  1  0
 21 22  2  0
 22 23  1  0
 23 24  1  0
 22  4  1  0
 18  7  2  0
 15  9  1  0
  1 25  1  0
  1 26  1  0
  1 27  1  0
  2 28  1  0
  2 29  1  0
  3 30  1  0
  3 31  1  0
  5 32  1  0
 10 33  1  0
 11 34  1  0
 12 35  1  0
 14 36  1  0
 19 37  1  0
 20 38  1  0
 21 39  1  0
 23 40  1  0
 23 41  1  0
 24 42  1  0
 24 43  1  0
 24 44  1  0
M  END
>  <meeko>  (2) 
{"is_sidechain": [false], "free_energy": -10.238, "intermolecular_energy": -13.119, "internal_energy": -0.466}

$$$$
cand_033_out
     RDKit          3D

 44 46  0  0  0  0  0  0  0  0999 V2000
   54.7560  156.6970   24.4600 C   0  0  0  0  0  0  0  0  0  0  0  0
   54.5260  155.2400   24.8260 C   0  0  0  0  0  0  0  0  0  0  0  0
   53.0330  154.9130   24.9060 C   0  0  0  0  0  0  0  0  0  0  0  0
   52.5670  154.7720   26.3380 C   0  0  0  0  0  0  0  0  0  0  0  0
   52.2890  155.9510   27.0600 C   0  0  0  0  0  0  0  0  0  0  0  0
   51.8730  155.9200   28.3980 C   0  0  0  0  0  0  0  0  0  0  0  0
   51.5580  157.1560   29.1450 C   0  0  0  0  0  0  0  0  0  0  0  0
   50.2530  157.1770   29.6270 O   0  0  0  0  0  0  0  0  0  0  0  0
   49.8260  158.2690   30.3390 C   0  0  0  0  0  0  0  0  0  0  0  0
   48.5060  158.2540   30.7900 C   0  0  0  0  0  0  0  0  0  0  0  0
   48.0070  159.3340   31.5220 C   0  0  0  0  0  0  0  0  0  0  0  0
   48.8290  160.4270   31.8040 C   0  0  0  0  0  0  0  0  0  0  0  0
   50.1470  160.4380   31.3530 C   0  0  0  0  0  0  0  0  0  0  0  0
   50.8970  161.5390   31.6650 O   0  0  0  0  0  0  0  0  0  0  0  0
   50.6440  159.3580   30.6200 C   0  0  0  0  0  0  0  0  0  0  0  0
   52.0230  159.3300   30.1270 C   0  0  0  0  0  0  0  0  0  0  0  0
   52.8080  160.2520   30.3400 O   0  0  0  0  0  0  0  0  0  0  0  0
   52.4490  158.1420   29.3530 C   0  0  0  0  0  0  0  0  0  0  0  0
   53.7570  158.1210   28.9030 O   0  0  0  0  0  0  0  0  0  0  0  0
   51.7200  154.6750   29.0150 C   0  0  0  0  0  0  0  0  0  0  0  0
   51.9970  153.4960   28.3180 C   0  0  0  0  0  0  0  0  0  0  0  0
   52.4310  153.5270   26.9820 C   0  0  0  0  0  0  0  0  0  0  0  0
   52.7010  152.2080   26.2930 C   0  0  0  0  0  0  0  0  0  0  0  0
   54.1700  152.0480   25.9290 C   0  0  0  0  0  0  0  0  0  0  0  0
   54.8504  157.2952   25.3783 H   0  0  0  0  0  0  0  0  0  0  0  0
   55.6792  156.7851   23.8684 H   0  0  0  0  0  0  0  0  0  0  0  0
   53.9049  157.0652   23.8684 H   0  0  0  0  0  0  0  0  0  0  0  0
   54.9918  154.6011   24.0612 H   0  0  0  0  0  0  0  0  0  0  0  0
   54.9739  155.0565   25.8138 H   0  0  0  0  0  0  0  0  0  0  0  0
   52.4646  155.7221   24.4242 H   0  0  0  0  0  0  0  0  0  0  0  0
   52.8642  153.9539   24.3945 H   0  0  0  0  0  0  0  0  0  0  0  0
   52.4020  156.9234   26.5584 H   0  0  0  0  0  0  0  0  0  0  0  0
   47.8587  157.3924   30.5694 H   0  0  0  0  0  0  0  0  0  0  0  0
   46.9658  159.3235   31.8765 H   0  0  0  0  0  0  0  0  0  0  0  0
   48.4367  161.2774   32.3810 H   0  0  0  0  0  0  0  0  0  0  0  0
   51.2610  161.6310   32.5240 H   0  0  0  0  0  0  0  0  0  0  0  0
   54.3530  157.4750   29.2270 H   0  0  0  0  0  0  0  0  0  0  0  0
   51.3783  154.6229   30.0593 H   0  0  0  0  0  0  0  0  0  0  0  0
   51.8732  152.5271   28.8239 H   0  0  0  0  0  0  0  0  0  0  0  0
   52.4104  151.3887   26.9670 H   0  0  0  0  0  0  0  0  0  0  0  0
   52.1146  152.1831   25.3626 H   0  0  0  0  0  0  0  0  0  0  0  0
   54.7705  151.9826   26.8483 H   0  0  0  0  0  0  0  0  0  0  0  0
   54.3034  151.1300   25.3378 H   0  0  0  0  0  0  0  0  0  0  0  0
   54.4979  152.9158   25.3378 H   0  0  0  0  0  0  0  0  0  0  0  0
  1  2  1  0
  2  3  1  0
  3  4  1  0
  4  5  2  0
  5  6  1  0
  6  7  1  0
  7  8  1  0
  8  9  1  0
  9 10  2  0
 10 11  1  0
 11 12  2  0
 12 13  1  0
 13 14  1  0
 13 15  2  0
 15 16  1  0
 16 17  2  0
 16 18  1  0
 18 19  1  0
  6 20  2  0
 20 21  1  0
 21 22  2  0
 22 23  1  0
 23 24  1  0
 22  4  1  0
 18  7  2  0
 15  9  1  0
  1 25  1  0
  1 26  1  0
  1 27  1  0
  2 28  1  0
  2 29  1  0
  3 30  1  0
  3 31  1  0
  5 32  1  0
 10 33  1  0
 11 34  1  0
 12 35  1  0
 14 36  1  0
 19 37  1  0
 20 38  1  0
 21 39  1  0
 23 40  1  0
 23 41  1  0
 24 42  1  0
 24 43  1  0
 24 44  1  0
M  END
>  <meeko>  (3) 
{"is_sidechain": [false], "free_energy": -9.919, "intermolecular_energy": -12.88, "internal_energy": -0.292}

$$$$
cand_033_out
     RDKit          3D

 44 46  0  0  0  0  0  0  0  0999 V2000
   53.8520  154.0330   24.0170 C   0  0  0  0  0  0  0  0  0  0  0  0
   52.9390  155.0360   24.7040 C   0  0  0  0  0  0  0  0  0  0  0  0
   53.6200  155.6720   25.9170 C   0  0  0  0  0  0  0  0  0  0  0  0
   52.8540  155.4040   27.1940 C   0  0  0  0  0  0  0  0  0  0  0  0
   52.2640  156.5030   27.8520 C   0  0  0  0  0  0  0  0  0  0  0  0
   51.5530  156.3550   29.0510 C   0  0  0  0  0  0  0  0  0  0  0  0
   50.9130  157.5050   29.7250 C   0  0  0  0  0  0  0  0  0  0  0  0
   51.8090  158.5300   30.0090 O   0  0  0  0  0  0  0  0  0  0  0  0
   51.3480  159.6590   30.6360 C   0  0  0  0  0  0  0  0  0  0  0  0
   52.2830  160.6560   30.9140 C   0  0  0  0  0  0  0  0  0  0  0  0
   51.8790  161.8330   31.5510 C   0  0  0  0  0  0  0  0  0  0  0  0
   50.5400  162.0120   31.9070 C   0  0  0  0  0  0  0  0  0  0  0  0
   49.6090  161.0150   31.6270 C   0  0  0  0  0  0  0  0  0  0  0  0
   48.3160  161.2550   32.0020 O   0  0  0  0  0  0  0  0  0  0  0  0
   50.0140  159.8380   30.9910 C   0  0  0  0  0  0  0  0  0  0  0  0
   49.0680  158.7650   30.6790 C   0  0  0  0  0  0  0  0  0  0  0  0
   47.8730  158.8520   30.9550 O   0  0  0  0  0  0  0  0  0  0  0  0
   49.6000  157.5560   30.0110 C   0  0  0  0  0  0  0  0  0  0  0  0
   48.6940  156.5540   29.7090 O   0  0  0  0  0  0  0  0  0  0  0  0
   51.4230  155.0710   29.5880 C   0  0  0  0  0  0  0  0  0  0  0  0
   52.0050  153.9710   28.9540 C   0  0  0  0  0  0  0  0  0  0  0  0
   52.7330  154.1210   27.7620 C   0  0  0  0  0  0  0  0  0  0  0  0
   53.3260  152.8810   27.1310 C   0  0  0  0  0  0  0  0  0  0  0  0
   52.2510  151.9090   26.6670 C   0  0  0  0  0  0  0  0  0  0  0  0
   54.3876  153.4446   24.7765 H   0  0  0  0  0  0  0  0  0  0  0  0
   53.2503  153.3598   23.3887 H   0  0  0  0  0  0  0  0  0  0  0  0
   54.5786  154.5690   23.3887 H   0  0  0  0  0  0  0  0  0  0  0  0
   52.6730  155.8270   23.9874 H   0  0  0  0  0  0  0  0  0  0  0  0
   52.0404  154.5048   25.0508 H   0  0  0  0  0  0  0  0  0  0  0  0
   54.6336  155.2560   26.0154 H   0  0  0  0  0  0  0  0  0  0  0  0
   53.6537  156.7602   25.7596 H   0  0  0  0  0  0  0  0  0  0  0  0
   52.3647  157.5059   27.4114 H   0  0  0  0  0  0  0  0  0  0  0  0
   53.3371  160.5163   30.6323 H   0  0  0  0  0  0  0  0  0  0  0  0
   52.6161  162.6189   31.7721 H   0  0  0  0  0  0  0  0  0  0  0  0
   50.2218  162.9385   32.4074 H   0  0  0  0  0  0  0  0  0  0  0  0
   48.0300  162.1330   32.1650 H   0  0  0  0  0  0  0  0  0  0  0  0
   48.6570  155.7820   30.2380 H   0  0  0  0  0  0  0  0  0  0  0  0
   50.8564  154.9254   30.5196 H   0  0  0  0  0  0  0  0  0  0  0  0
   51.8914  152.9700   29.3957 H   0  0  0  0  0  0  0  0  0  0  0  0
   53.9335  153.1794   26.2639 H   0  0  0  0  0  0  0  0  0  0  0  0
   53.9393  152.3731   27.8899 H   0  0  0  0  0  0  0  0  0  0  0  0
   51.7574  151.4627   27.5429 H   0  0  0  0  0  0  0  0  0  0  0  0
   51.5069  152.4470   26.0613 H   0  0  0  0  0  0  0  0  0  0  0  0
   52.7116  151.1146   26.0613 H   0  0  0  0  0  0  0  0  0  0  0  0
  1  2  1  0
  2  3  1  0
  3  4  1  0
  4  5  2  0
  5  6  1  0
  6  7  1  0
  7  8  1  0
  8  9  1  0
  9 10  2  0
 10 11  1  0
 11 12  2  0
 12 13  1  0
 13 14  1  0
 13 15  2  0
 15 16  1  0
 16 17  2  0
 16 18  1  0
 18 19  1  0
  6 20  2  0
 20 21  1  0
 21 22  2  0
 22 23  1  0
 23 24  1  0
 22  4  1  0
 18  7  2  0
 15  9  1  0
  1 25  1  0
  1 26  1  0
  1 27  1  0
  2 28  1  0
  2 29  1  0
  3 30  1  0
  3 31  1  0
  5 32  1  0
 10 33  1  0
 11 34  1  0
 12 35  1  0
 14 36  1  0
 19 37  1  0
 20 38  1  0
 21 39  1  0
 23 40  1  0
 23 41  1  0
 24 42  1  0
 24 43  1  0
 24 44  1  0
M  END
>  <meeko>  (4) 
{"is_sidechain": [false], "free_energy": -8.937, "intermolecular_energy": -11.603, "internal_energy": -0.3}

$$$$
cand_033_out
     RDKit          3D

 44 46  0  0  0  0  0  0  0  0999 V2000
   51.2100  161.3010   31.2890 C   0  0  0  0  0  0  0  0  0  0  0  0
   51.0520  160.4060   30.0710 C   0  0  0  0  0  0  0  0  0  0  0  0
   52.0680  159.2620   30.0830 C   0  0  0  0  0  0  0  0  0  0  0  0
   51.4400  157.9510   29.6620 C   0  0  0  0  0  0  0  0  0  0  0  0
   52.1290  157.1630   28.7170 C   0  0  0  0  0  0  0  0  0  0  0  0
   51.6150  155.9460   28.2510 C   0  0  0  0  0  0  0  0  0  0  0  0
   52.3520  155.1090   27.2810 C   0  0  0  0  0  0  0  0  0  0  0  0
   52.0220  153.7610   27.3710 O   0  0  0  0  0  0  0  0  0  0  0  0
   52.6340  152.8700   26.5270 C   0  0  0  0  0  0  0  0  0  0  0  0
   52.2840  151.5260   26.6620 C   0  0  0  0  0  0  0  0  0  0  0  0
   52.8700  150.5660   25.8330 C   0  0  0  0  0  0  0  0  0  0  0  0
   53.8030  150.9510   24.8680 C   0  0  0  0  0  0  0  0  0  0  0  0
   54.1500  152.2930   24.7350 C   0  0  0  0  0  0  0  0  0  0  0  0
   55.0700  152.6010   23.7700 O   0  0  0  0  0  0  0  0  0  0  0  0
   53.5640  153.2520   25.5650 C   0  0  0  0  0  0  0  0  0  0  0  0
   53.9010  154.6730   25.4590 C   0  0  0  0  0  0  0  0  0  0  0  0
   54.7080  155.0900   24.6310 O   0  0  0  0  0  0  0  0  0  0  0  0
   53.2310  155.6080   26.3920 C   0  0  0  0  0  0  0  0  0  0  0  0
   53.5470  156.9490   26.2740 O   0  0  0  0  0  0  0  0  0  0  0  0
   50.3890  155.5070   28.7600 C   0  0  0  0  0  0  0  0  0  0  0  0
   49.6880  156.2770   29.6920 C   0  0  0  0  0  0  0  0  0  0  0  0
   50.1940  157.5060   30.1460 C   0  0  0  0  0  0  0  0  0  0  0  0
   49.3810  158.2770   31.1620 C   0  0  0  0  0  0  0  0  0  0  0  0
   48.1130  158.8570   30.5520 C   0  0  0  0  0  0  0  0  0  0  0  0
   51.1036  160.6984   32.2031 H   0  0  0  0  0  0  0  0  0  0  0  0
   52.2048  161.7701   31.2728 H   0  0  0  0  0  0  0  0  0  0  0  0
   50.4359  162.0824   31.2728 H   0  0  0  0  0  0  0  0  0  0  0  0
   50.0367  159.9829   30.0672 H   0  0  0  0  0  0  0  0  0  0  0  0
   51.2253  161.0134   29.1704 H   0  0  0  0  0  0  0  0  0  0  0  0
   52.8861  159.5045   29.3888 H   0  0  0  0  0  0  0  0  0  0  0  0
   52.4436  159.1478   31.1106 H   0  0  0  0  0  0  0  0  0  0  0  0
   53.0987  157.5143   28.3345 H   0  0  0  0  0  0  0  0  0  0  0  0
   51.5473  151.2225   27.4205 H   0  0  0  0  0  0  0  0  0  0  0  0
   52.5962  149.5061   25.9406 H   0  0  0  0  0  0  0  0  0  0  0  0
   54.2630  150.1955   24.2141 H   0  0  0  0  0  0  0  0  0  0  0  0
   55.9370  152.8580   24.0140 H   0  0  0  0  0  0  0  0  0  0  0  0
   53.3700  157.4030   25.4740 H   0  0  0  0  0  0  0  0  0  0  0  0
   49.9722  154.5462   28.4236 H   0  0  0  0  0  0  0  0  0  0  0  0
   48.7234  155.9143   30.0766 H   0  0  0  0  0  0  0  0  0  0  0  0
   49.1031  157.5997   31.9830 H   0  0  0  0  0  0  0  0  0  0  0  0
   49.9962  159.1122   31.5280 H   0  0  0  0  0  0  0  0  0  0  0  0
   47.4295  159.1696   31.3552 H   0  0  0  0  0  0  0  0  0  0  0  0
   48.3701  159.7270   29.9300 H   0  0  0  0  0  0  0  0  0  0  0  0
   47.6229  158.0935   29.9300 H   0  0  0  0  0  0  0  0  0  0  0  0
  1  2  1  0
  2  3  1  0
  3  4  1  0
  4  5  2  0
  5  6  1  0
  6  7  1  0
  7  8  1  0
  8  9  1  0
  9 10  2  0
 10 11  1  0
 11 12  2  0
 12 13  1  0
 13 14  1  0
 13 15  2  0
 15 16  1  0
 16 17  2  0
 16 18  1  0
 18 19  1  0
  6 20  2  0
 20 21  1  0
 21 22  2  0
 22 23  1  0
 23 24  1  0
 22  4  1  0
 18  7  2  0
 15  9  1  0
  1 25  1  0
  1 26  1  0
  1 27  1  0
  2 28  1  0
  2 29  1  0
  3 30  1  0
  3 31  1  0
  5 32  1  0
 10 33  1  0
 11 34  1  0
 12 35  1  0
 14 36  1  0
 19 37  1  0
 20 38  1  0
 21 39  1  0
 23 40  1  0
 23 41  1  0
 24 42  1  0
 24 43  1  0
 24 44  1  0
M  END
>  <meeko>  (5) 
{"is_sidechain": [false], "free_energy": -8.42, "intermolecular_energy": -11.725, "internal_energy": 0.489}

$$$$
cand_033_out
     RDKit          3D

 44 46  0  0  0  0  0  0  0  0999 V2000
   51.5470  150.9440   28.1590 C   0  0  0  0  0  0  0  0  0  0  0  0
   51.5490  152.4030   27.7320 C   0  0  0  0  0  0  0  0  0  0  0  0
   51.9350  153.3230   28.8920 C   0  0  0  0  0  0  0  0  0  0  0  0
   52.1890  154.7390   28.4220 C   0  0  0  0  0  0  0  0  0  0  0  0
   51.7000  155.7950   29.2180 C   0  0  0  0  0  0  0  0  0  0  0  0
   51.8680  157.1380   28.8530 C   0  0  0  0  0  0  0  0  0  0  0  0
   51.3770  158.2440   29.7010 C   0  0  0  0  0  0  0  0  0  0  0  0
   50.0400  158.1000   30.0550 O   0  0  0  0  0  0  0  0  0  0  0  0
   49.4540  159.0580   30.8420 C   0  0  0  0  0  0  0  0  0  0  0  0
   48.1080  158.8810   31.1610 C   0  0  0  0  0  0  0  0  0  0  0  0
   47.4510  159.8200   31.9600 C   0  0  0  0  0  0  0  0  0  0  0  0
   48.1420  160.9350   32.4400 C   0  0  0  0  0  0  0  0  0  0  0  0
   49.4860  161.1090   32.1210 C   0  0  0  0  0  0  0  0  0  0  0  0
   50.1010  162.2220   32.6250 O   0  0  0  0  0  0  0  0  0  0  0  0
   50.1420  160.1690   31.3210 C   0  0  0  0  0  0  0  0  0  0  0  0
   51.5540  160.3150   30.9610 C   0  0  0  0  0  0  0  0  0  0  0  0
   52.2290  161.2650   31.3510 O   0  0  0  0  0  0  0  0  0  0  0  0
   52.1520  159.2680   30.1020 C   0  0  0  0  0  0  0  0  0  0  0  0
   53.4900  159.4090   29.7790 O   0  0  0  0  0  0  0  0  0  0  0  0
   52.5570  157.4200   27.6700 C   0  0  0  0  0  0  0  0  0  0  0  0
   53.0450  156.3870   26.8650 C   0  0  0  0  0  0  0  0  0  0  0  0
   52.8610  155.0400   27.2210 C   0  0  0  0  0  0  0  0  0  0  0  0
   53.4250  153.9800   26.3030 C   0  0  0  0  0  0  0  0  0  0  0  0
   53.2520  154.3470   24.8360 C   0  0  0  0  0  0  0  0  0  0  0  0
   51.5469  150.8834   29.2573 H   0  0  0  0  0  0  0  0  0  0  0  0
   50.6482  150.4477   27.7643 H   0  0  0  0  0  0  0  0  0  0  0  0
   52.4445  150.4452   27.7643 H   0  0  0  0  0  0  0  0  0  0  0  0
   52.2723  152.5356   26.9139 H   0  0  0  0  0  0  0  0  0  0  0  0
   50.5339  152.6688   27.4020 H   0  0  0  0  0  0  0  0  0  0  0  0
   51.1167  153.3326   29.6270 H   0  0  0  0  0  0  0  0  0  0  0  0
   52.8629  152.9387   29.3406 H   0  0  0  0  0  0  0  0  0  0  0  0
   51.1711  155.5581   30.1529 H   0  0  0  0  0  0  0  0  0  0  0  0
   47.5639  158.0026   30.7837 H   0  0  0  0  0  0  0  0  0  0  0  0
   46.3891  159.6812   32.2112 H   0  0  0  0  0  0  0  0  0  0  0  0
   47.6250  161.6745   33.0691 H   0  0  0  0  0  0  0  0  0  0  0  0
   49.6170  162.8270   33.1510 H   0  0  0  0  0  0  0  0  0  0  0  0
   53.8360  158.9840   29.0190 H   0  0  0  0  0  0  0  0  0  0  0  0
   52.7168  158.4660   27.3694 H   0  0  0  0  0  0  0  0  0  0  0  0
   53.5822  156.6324   25.9370 H   0  0  0  0  0  0  0  0  0  0  0  0
   54.4977  153.8603   26.5152 H   0  0  0  0  0  0  0  0  0  0  0  0
   52.8768  153.0442   26.4866 H   0  0  0  0  0  0  0  0  0  0  0  0
   52.7841  155.3396   24.7591 H   0  0  0  0  0  0  0  0  0  0  0  0
   54.2358  154.3663   24.3444 H   0  0  0  0  0  0  0  0  0  0  0  0
   52.6110  153.6004   24.3444 H   0  0  0  0  0  0  0  0  0  0  0  0
  1  2  1  0
  2  3  1  0
  3  4  1  0
  4  5  2  0
  5  6  1  0
  6  7  1  0
  7  8  1  0
  8  9  1  0
  9 10  2  0
 10 11  1  0
 11 12  2  0
 12 13  1  0
 13 14  1  0
 13 15  2  0
 15 16  1  0
 16 17  2  0
 16 18  1  0
 18 19  1  0
  6 20  2  0
 20 21  1  0
 21 22  2  0
 22 23  1  0
 23 24  1  0
 22  4  1  0
 18  7  2  0
 15  9  1  0
  1 25  1  0
  1 26  1  0
  1 27  1  0
  2 28  1  0
  2 29  1  0
  3 30  1  0
  3 31  1  0
  5 32  1  0
 10 33  1  0
 11 34  1  0
 12 35  1  0
 14 36  1  0
 19 37  1  0
 20 38  1  0
 21 39  1  0
 23 40  1  0
 23 41  1  0
 24 42  1  0
 24 43  1  0
 24 44  1  0
M  END
>  <meeko>  (6) 
{"is_sidechain": [false], "free_energy": -7.974, "intermolecular_energy": -10.898, "internal_energy": 0.238}

$$$$
cand_033_out
     RDKit          3D

 44 46  0  0  0  0  0  0  0  0999 V2000
   47.2900  159.6500   31.4810 C   0  0  0  0  0  0  0  0  0  0  0  0
   48.0260  159.0460   30.2970 C   0  0  0  0  0  0  0  0  0  0  0  0
   48.8740  157.8440   30.7210 C   0  0  0  0  0  0  0  0  0  0  0  0
   50.2540  157.8860   30.1010 C   0  0  0  0  0  0  0  0  0  0  0  0
   50.6490  156.7980   29.2960 C   0  0  0  0  0  0  0  0  0  0  0  0
   51.9150  156.7390   28.6990 C   0  0  0  0  0  0  0  0  0  0  0  0
   52.3170  155.6090   27.8340 C   0  0  0  0  0  0  0  0  0  0  0  0
   51.8080  154.3900   28.2680 O   0  0  0  0  0  0  0  0  0  0  0  0
   52.1050  153.2560   27.5570 C   0  0  0  0  0  0  0  0  0  0  0  0
   51.5860  152.0530   28.0360 C   0  0  0  0  0  0  0  0  0  0  0  0
   51.8500  150.8600   27.3580 C   0  0  0  0  0  0  0  0  0  0  0  0
   52.6310  150.8720   26.2000 C   0  0  0  0  0  0  0  0  0  0  0  0
   53.1480  152.0740   25.7250 C   0  0  0  0  0  0  0  0  0  0  0  0
   53.9040  152.0140   24.5860 O   0  0  0  0  0  0  0  0  0  0  0  0
   52.8840  153.2660   26.4040 C   0  0  0  0  0  0  0  0  0  0  0  0
   53.4080  154.5520   25.9370 C   0  0  0  0  0  0  0  0  0  0  0  0
   54.0980  154.6430   24.9240 O   0  0  0  0  0  0  0  0  0  0  0  0
   53.0780  155.7550   26.7340 C   0  0  0  0  0  0  0  0  0  0  0  0
   53.5670  156.9650   26.2770 O   0  0  0  0  0  0  0  0  0  0  0  0
   52.7940  157.8060   28.9050 C   0  0  0  0  0  0  0  0  0  0  0  0
   52.4240  158.8900   29.7040 C   0  0  0  0  0  0  0  0  0  0  0  0
   51.1610  158.9420   30.3180 C   0  0  0  0  0  0  0  0  0  0  0  0
   50.8310  160.1530   31.1610 C   0  0  0  0  0  0  0  0  0  0  0  0
   51.9900  161.1370   31.2230 C   0  0  0  0  0  0  0  0  0  0  0  0
   47.7371  159.2831   32.4166 H   0  0  0  0  0  0  0  0  0  0  0  0
   47.3698  160.7464   31.4418 H   0  0  0  0  0  0  0  0  0  0  0  0
   46.2302  159.3578   31.4418 H   0  0  0  0  0  0  0  0  0  0  0  0
   47.2905  158.7186   29.5475 H   0  0  0  0  0  0  0  0  0  0  0  0
   48.6955  159.8117   29.8781 H   0  0  0  0  0  0  0  0  0  0  0  0
   48.9750  157.8476   31.8163 H   0  0  0  0  0  0  0  0  0  0  0  0
   48.3701  156.9296   30.3746 H   0  0  0  0  0  0  0  0  0  0  0  0
   49.9423  155.9711   29.1319 H   0  0  0  0  0  0  0  0  0  0  0  0
   50.9693  152.0435   28.9468 H   0  0  0  0  0  0  0  0  0  0  0  0
   51.4425  149.9109   27.7364 H   0  0  0  0  0  0  0  0  0  0  0  0
   52.8371  149.9335   25.6645 H   0  0  0  0  0  0  0  0  0  0  0  0
   53.8110  152.6720   23.9260 H   0  0  0  0  0  0  0  0  0  0  0  0
   53.0430  157.5000   25.7130 H   0  0  0  0  0  0  0  0  0  0  0  0
   53.7874  157.7918   28.4329 H   0  0  0  0  0  0  0  0  0  0  0  0
   53.1332  159.7171   29.8553 H   0  0  0  0  0  0  0  0  0  0  0  0
   49.9570  160.6605   30.7268 H   0  0  0  0  0  0  0  0  0  0  0  0
   50.6228  159.8081   32.1846 H   0  0  0  0  0  0  0  0  0  0  0  0
   52.2371  161.3468   32.2742 H   0  0  0  0  0  0  0  0  0  0  0  0
   52.8667  160.7031   30.7198 H   0  0  0  0  0  0  0  0  0  0  0  0
   51.7041  162.0725   30.7198 H   0  0  0  0  0  0  0  0  0  0  0  0
  1  2  1  0
  2  3  1  0
  3  4  1  0
  4  5  2  0
  5  6  1  0
  6  7  1  0
  7  8  1  0
  8  9  1  0
  9 10  2  0
 10 11  1  0
 11 12  2  0
 12 13  1  0
 13 14  1  0
 13 15  2  0
 15 16  1  0
 16 17  2  0
 16 18  1  0
 18 19  1  0
  6 20  2  0
 20 21  1  0
 21 22  2  0
 22 23  1  0
 23 24  1  0
 22  4  1  0
 18  7  2  0
 15  9  1  0
  1 25  1  0
  1 26  1  0
  1 27  1  0
  2 28  1  0
  2 29  1  0
  3 30  1  0
  3 31  1  0
  5 32  1  0
 10 33  1  0
 11 34  1  0
 12 35  1  0
 14 36  1  0
 19 37  1  0
 20 38  1  0
 21 39  1  0
 23 40  1  0
 23 41  1  0
 24 42  1  0
 24 43  1  0
 24 44  1  0
M  END
>  <meeko>  (7) 
{"is_sidechain": [false], "free_energy": -7.892, "intermolecular_energy": -10.63, "internal_energy": 0.077}

$$$$
cand_033_out
     RDKit          3D

 44 46  0  0  0  0  0  0  0  0999 V2000
   52.5150  151.1900   26.2590 C   0  0  0  0  0  0  0  0  0  0  0  0
   51.8050  152.2690   27.0600 C   0  0  0  0  0  0  0  0  0  0  0  0
   52.7820  153.0310   27.9590 C   0  0  0  0  0  0  0  0  0  0  0  0
   52.7940  154.5110   27.6460 C   0  0  0  0  0  0  0  0  0  0  0  0
   52.1340  155.3790   28.5410 C   0  0  0  0  0  0  0  0  0  0  0  0
   52.0740  156.7620   28.3220 C   0  0  0  0  0  0  0  0  0  0  0  0
   51.4050  157.6730   29.2740 C   0  0  0  0  0  0  0  0  0  0  0  0
   52.1510  158.8160   29.5430 O   0  0  0  0  0  0  0  0  0  0  0  0
   51.6470  159.7480   30.4130 C   0  0  0  0  0  0  0  0  0  0  0  0
   52.4350  160.8710   30.6650 C   0  0  0  0  0  0  0  0  0  0  0  0
   51.9800  161.8600   31.5400 C   0  0  0  0  0  0  0  0  0  0  0  0
   50.7370  161.7260   32.1620 C   0  0  0  0  0  0  0  0  0  0  0  0
   49.9520  160.6040   31.9080 C   0  0  0  0  0  0  0  0  0  0  0  0
   48.7460  160.5370   32.5490 O   0  0  0  0  0  0  0  0  0  0  0  0
   50.4080  159.6150   31.0320 C   0  0  0  0  0  0  0  0  0  0  0  0
   49.6150  158.4200   30.7380 C   0  0  0  0  0  0  0  0  0  0  0  0
   48.5080  158.2340   31.2410 O   0  0  0  0  0  0  0  0  0  0  0  0
   50.1920  157.4280   29.8030 C   0  0  0  0  0  0  0  0  0  0  0  0
   49.4280  156.3100   29.5230 O   0  0  0  0  0  0  0  0  0  0  0  0
   52.7040  157.2800   27.1870 C   0  0  0  0  0  0  0  0  0  0  0  0
   53.3570  156.4360   26.2860 C   0  0  0  0  0  0  0  0  0  0  0  0
   53.4030  155.0470   26.4950 C   0  0  0  0  0  0  0  0  0  0  0  0
   54.1370  154.2000   25.4790 C   0  0  0  0  0  0  0  0  0  0  0  0
   54.9110  155.0510   24.4830 C   0  0  0  0  0  0  0  0  0  0  0  0
   52.9867  150.4731   26.9471 H   0  0  0  0  0  0  0  0  0  0  0  0
   51.7858  150.6643   25.6251 H   0  0  0  0  0  0  0  0  0  0  0  0
   53.2863  151.6517   25.6251 H   0  0  0  0  0  0  0  0  0  0  0  0
   51.3313  152.9776   26.3647 H   0  0  0  0  0  0  0  0  0  0  0  0
   51.0510  151.7862   27.6990 H   0  0  0  0  0  0  0  0  0  0  0  0
   52.4836  152.8912   29.0085 H   0  0  0  0  0  0  0  0  0  0  0  0
   53.7924  152.6349   27.7798 H   0  0  0  0  0  0  0  0  0  0  0  0
   51.6527  154.9584   29.4363 H   0  0  0  0  0  0  0  0  0  0  0  0
   53.4140  160.9776   30.1750 H   0  0  0  0  0  0  0  0  0  0  0  0
   52.6015  162.7454   31.7394 H   0  0  0  0  0  0  0  0  0  0  0  0
   50.3786  162.5049   32.8511 H   0  0  0  0  0  0  0  0  0  0  0  0
   48.7090  160.3010   33.4560 H   0  0  0  0  0  0  0  0  0  0  0  0
   49.2970  156.0430   28.6340 H   0  0  0  0  0  0  0  0  0  0  0  0
   52.6853  158.3641   27.0014 H   0  0  0  0  0  0  0  0  0  0  0  0
   53.8435  156.8656   25.3979 H   0  0  0  0  0  0  0  0  0  0  0  0
   54.8422  153.5419   26.0078 H   0  0  0  0  0  0  0  0  0  0  0  0
   53.3912  153.6154   24.9204 H   0  0  0  0  0  0  0  0  0  0  0  0
   55.5543  155.7583   25.0270 H   0  0  0  0  0  0  0  0  0  0  0  0
   55.5336  154.4006   23.8510 H   0  0  0  0  0  0  0  0  0  0  0  0
   54.2047  155.6093   23.8510 H   0  0  0  0  0  0  0  0  0  0  0  0
  1  2  1  0
  2  3  1  0
  3  4  1  0
  4  5  2  0
  5  6  1  0
  6  7  1  0
  7  8  1  0
  8  9  1  0
  9 10  2  0
 10 11  1  0
 11 12  2  0
 12 13  1  0
 13 14  1  0
 13 15  2  0
 15 16  1  0
 16 17  2  0
 16 18  1  0
 18 19  1  0
  6 20  2  0
 20 21  1  0
 21 22  2  0
 22 23  1  0
 23 24  1  0
 22  4  1  0
 18  7  2  0
 15  9  1  0
  1 25  1  0
  1 26  1  0
  1 27  1  0
  2 28  1  0
  2 29  1  0
  3 30  1  0
  3 31  1  0
  5 32  1  0
 10 33  1  0
 11 34  1  0
 12 35  1  0
 14 36  1  0
 19 37  1  0
 20 38  1  0
 21 39  1  0
 23 40  1  0
 23 41  1  0
 24 42  1  0
 24 43  1  0
 24 44  1  0
M  END
>  <meeko>  (8) 
{"is_sidechain": [false], "free_energy": -7.891, "intermolecular_energy": -10.229, "internal_energy": -0.323}

$$$$
