cand_017_out
     RDKit          3D

 38 40  0  0  0  0  0  0  0  0999 V2000
   47.3220  159.5850   30.7010 C   0  0  0  0  0  0  0  0  0  0  0  0
   48.3490  158.8580   31.5570 C   0  0  0  0  0  0  0  0  0  0  0  0
   49.7270  158.8850   30.9330 C   0  0  0  0  0  0  0  0  0  0  0  0
   50.1570  157.7430   30.2260 C   0  0  0  0  0  0  0  0  0  0  0  0
   51.4160  157.6850   29.6130 C   0  0  0  0  0  0  0  0  0  0  0  0
   51.8560  156.4970   28.8510 C   0  0  0  0  0  0  0  0  0  0  0  0
   52.4550  156.8230   27.6400 O   0  0  0  0  0  0  0  0  0  0  0  0
   52.9100  155.8120   26.8330 C   0  0  0  0  0  0  0  0  0  0  0  0
   53.4900  156.1830   25.6180 C   0  0  0  0  0  0  0  0  0  0  0  0
   53.9760  155.2030   24.7500 C   0  0  0  0  0  0  0  0  0  0  0  0
   53.8810  153.8540   25.0940 C   0  0  0  0  0  0  0  0  0  0  0  0
   53.3030  153.4860   26.3060 C   0  0  0  0  0  0  0  0  0  0  0  0
   53.2430  152.1470   26.5810 O   0  0  0  0  0  0  0  0  0  0  0  0
   52.8160  154.4660   27.1750 C   0  0  0  0  0  0  0  0  0  0  0  0
   52.2000  154.1240   28.4570 C   0  0  0  0  0  0  0  0  0  0  0  0
   52.0870  152.9580   28.8350 O   0  0  0  0  0  0  0  0  0  0  0  0
   51.7100  155.2370   29.3020 C   0  0  0  0  0  0  0  0  0  0  0  0
   51.1410  154.9020   30.5170 O   0  0  0  0  0  0  0  0  0  0  0  0
   52.2480  158.8060   29.6980 C   0  0  0  0  0  0  0  0  0  0  0  0
   51.8370  159.9470   30.3910 C   0  0  0  0  0  0  0  0  0  0  0  0
   50.5780  160.0070   31.0130 C   0  0  0  0  0  0  0  0  0  0  0  0
   50.1950  161.2590   31.7680 C   0  0  0  0  0  0  0  0  0  0  0  0
   49.8680  161.0220   33.0700 F   0  0  0  0  0  0  0  0  0  0  0  0
   49.1160  161.9060   31.2380 F   0  0  0  0  0  0  0  0  0  0  0  0
   46.5984  160.0972   31.3522 H   0  0  0  0  0  0  0  0  0  0  0  0
   47.8315  160.3247   30.0660 H   0  0  0  0  0  0  0  0  0  0  0  0
   46.7937  158.8586   30.0660 H   0  0  0  0  0  0  0  0  0  0  0  0
   48.3962  159.3424   32.5435 H   0  0  0  0  0  0  0  0  0  0  0  0
   48.0359  157.8071   31.6447 H   0  0  0  0  0  0  0  0  0  0  0  0
   49.4861  156.8743   30.1537 H   0  0  0  0  0  0  0  0  0  0  0  0
   53.5639  157.2460   25.3450 H   0  0  0  0  0  0  0  0  0  0  0  0
   54.4344  155.4949   23.7936 H   0  0  0  0  0  0  0  0  0  0  0  0
   54.2622  153.0826   24.4087 H   0  0  0  0  0  0  0  0  0  0  0  0
   53.0030  151.5410   25.9090 H   0  0  0  0  0  0  0  0  0  0  0  0
   51.2470  154.0370   30.8610 H   0  0  0  0  0  0  0  0  0  0  0  0
   53.2358  158.7889   29.2143 H   0  0  0  0  0  0  0  0  0  0  0  0
   52.5109  160.8144   30.4511 H   0  0  0  0  0  0  0  0  0  0  0  0
   51.1022  161.8760   31.6894 H   0  0  0  0  0  0  0  0  0  0  0  0
  1  2  1  0
  2  3  1  0
  3  4  2  0
  4  5  1  0
  5  6  1  0
  6  7  1  0
  7  8  1  0
  8  9  2  0
  9 10  1  0
 10 11  2  0
 11 12  1  0
 12 13  1  0
 12 14  2  0
 14 15  1  0
 15 16  2  0
 15 17  1  0
 17 18  1  0
  5 19  2  0
 19 20  1  0
 20 21  2  0
 21 22  1  0
 22 23  1  0
 22 24  1  0
 21  3  1  0
 17  6  2  0
 14  8  1  0
  1 25  1  0
  1 26  1  0
  1 27  1  0
  2 28  1  0
  2 29  1  0
  4 30  1  0
  9 31  1  0
 10 32  1  0
 11 33  1  0
 13 34  1  0
 18 35  1  0
 19 36  1  0
 20 37  1  0
 22 38  1  0
M  END
>  <meeko>  (1) 
{"is_sidechain": [false], "free_energy": -11.466, "intermolecular_energy": -14.147, "internal_energy": -0.096}

$$$$
cand_017_out
     RDKit          3D

 38 40  0  0  0  0  0  0  0  0999 V2000
   54.0250  156.5350   25.2030 C   0  0  0  0  0  0  0  0  0  0  0  0
   53.2880  155.2200   25.4140 C   0  0  0  0  0  0  0  0  0  0  0  0
   52.7260  155.1030   26.8140 C   0  0  0  0  0  0  0  0  0  0  0  0
   52.3300  156.2860   27.4710 C   0  0  0  0  0  0  0  0  0  0  0  0
   51.7950  156.2670   28.7670 C   0  0  0  0  0  0  0  0  0  0  0  0
   51.3570  157.5060   29.4450 C   0  0  0  0  0  0  0  0  0  0  0  0
   50.0250  157.4640   29.8390 O   0  0  0  0  0  0  0  0  0  0  0  0
   49.4900  158.5510   30.4800 C   0  0  0  0  0  0  0  0  0  0  0  0
   48.1440  158.4740   30.8430 C   0  0  0  0  0  0  0  0  0  0  0  0
   47.5370  159.5460   31.5020 C   0  0  0  0  0  0  0  0  0  0  0  0
   48.2750  160.6940   31.7970 C   0  0  0  0  0  0  0  0  0  0  0  0
   49.6170  160.7690   31.4340 C   0  0  0  0  0  0  0  0  0  0  0  0
   50.2800  161.9220   31.7550 O   0  0  0  0  0  0  0  0  0  0  0  0
   50.2240  159.6970   30.7750 C   0  0  0  0  0  0  0  0  0  0  0  0
   51.6310  159.7340   30.3750 C   0  0  0  0  0  0  0  0  0  0  0  0
   52.3490  160.7060   30.6060 O   0  0  0  0  0  0  0  0  0  0  0  0
   52.1770  158.5490   29.6740 C   0  0  0  0  0  0  0  0  0  0  0  0
   53.5110  158.5900   29.3130 O   0  0  0  0  0  0  0  0  0  0  0  0
   51.6390  155.0320   29.4020 C   0  0  0  0  0  0  0  0  0  0  0  0
   52.0220  153.8490   28.7650 C   0  0  0  0  0  0  0  0  0  0  0  0
   52.5650  153.8630   27.4690 C   0  0  0  0  0  0  0  0  0  0  0  0
   52.9830  152.5560   26.8360 C   0  0  0  0  0  0  0  0  0  0  0  0
   54.3260  152.4660   26.6270 F   0  0  0  0  0  0  0  0  0  0  0  0
   52.4130  152.3340   25.6160 F   0  0  0  0  0  0  0  0  0  0  0  0
   54.2728  156.9772   26.1793 H   0  0  0  0  0  0  0  0  0  0  0  0
   54.9509  156.3500   24.6386 H   0  0  0  0  0  0  0  0  0  0  0  0
   53.3839  157.2282   24.6386 H   0  0  0  0  0  0  0  0  0  0  0  0
   52.4599  155.1574   24.6926 H   0  0  0  0  0  0  0  0  0  0  0  0
   54.0069  154.4005   25.2671 H   0  0  0  0  0  0  0  0  0  0  0  0
   52.4438  157.2497   26.9530 H   0  0  0  0  0  0  0  0  0  0  0  0
   47.5620  157.5701   30.6103 H   0  0  0  0  0  0  0  0  0  0  0  0
   46.4767  159.4856   31.7887 H   0  0  0  0  0  0  0  0  0  0  0  0
   47.7967  161.5380   32.3155 H   0  0  0  0  0  0  0  0  0  0  0  0
   50.1680  162.3070   32.6010 H   0  0  0  0  0  0  0  0  0  0  0  0
   53.8030  158.1330   28.5490 H   0  0  0  0  0  0  0  0  0  0  0  0
   51.2101  154.9908   30.4141 H   0  0  0  0  0  0  0  0  0  0  0  0
   51.8962  152.8892   29.2874 H   0  0  0  0  0  0  0  0  0  0  0  0
   52.6419  151.8121   27.5710 H   0  0  0  0  0  0  0  0  0  0  0  0
  1  2  1  0
  2  3  1  0
  3  4  2  0
  4  5  1  0
  5  6  1  0
  6  7  1  0
  7  8  1  0
  8  9  2  0
  9 10  1  0
 10 11  2  0
 11 12  1  0
 12 13  1  0
 12 14  2  0
 14 15  1  0
 15 16  2  0
 15 17  1  0
 17 18  1  0
  5 19  2  0
 19 20  1  0
 20 21  2  0
 21 22  1  0
 22 23  1  0
 22 24  1  0
 21  3  1  0
 17  6  2  0
 14  8  1  0
  1 25  1  0
  1 26  1  0
  1 27  1  0
  2 28  1  0
  2 29  1  0
  4 30  1  0
  9 31  1  0
 10 32  1  0
 11 33  1  0
 13 34  1  0
 18 35  1  0
 19 36  1  0
 20 37  1  0
 22 38  1  0
M  END
>  <meeko>  (2) 
{"is_sidechain": [false], "free_energy": -10.917, "intermolecular_energy": -13.182, "internal_energy": -0.383}

$$$$
cand_017_out
     RDKit          3D

 38 40  0  0  0  0  0  0  0  0999 V2000
   51.4260  161.4800   32.0310 C   0  0  0  0  0  0  0  0  0  0  0  0
   51.5100  161.0110   30.5850 C   0  0  0  0  0  0  0  0  0  0  0  0
   50.8060  159.6880   30.3760 C   0  0  0  0  0  0  0  0  0  0  0  0
   51.4960  158.6710   29.6850 C   0  0  0  0  0  0  0  0  0  0  0  0
   50.9200  157.4140   29.4540 C   0  0  0  0  0  0  0  0  0  0  0  0
   51.6530  156.3400   28.7510 C   0  0  0  0  0  0  0  0  0  0  0  0
   52.2030  156.7600   27.5460 O   0  0  0  0  0  0  0  0  0  0  0  0
   52.9110  155.8600   26.7910 C   0  0  0  0  0  0  0  0  0  0  0  0
   53.4310  156.3200   25.5800 C   0  0  0  0  0  0  0  0  0  0  0  0
   54.1650  155.4550   24.7640 C   0  0  0  0  0  0  0  0  0  0  0  0
   54.3760  154.1330   25.1580 C   0  0  0  0  0  0  0  0  0  0  0  0
   53.8560  153.6770   26.3660 C   0  0  0  0  0  0  0  0  0  0  0  0
   54.1030  152.3710   26.6910 O   0  0  0  0  0  0  0  0  0  0  0  0
   53.1230  154.5420   27.1820 C   0  0  0  0  0  0  0  0  0  0  0  0
   52.5580  154.1030   28.4590 C   0  0  0  0  0  0  0  0  0  0  0  0
   52.7080  152.9570   28.8790 O   0  0  0  0  0  0  0  0  0  0  0  0
   51.7900  155.0960   29.2460 C   0  0  0  0  0  0  0  0  0  0  0  0
   51.2720  154.6740   30.4570 O   0  0  0  0  0  0  0  0  0  0  0  0
   49.6330  157.1740   29.9440 C   0  0  0  0  0  0  0  0  0  0  0  0
   48.9350  158.1690   30.6340 C   0  0  0  0  0  0  0  0  0  0  0  0
   49.5070  159.4320   30.8630 C   0  0  0  0  0  0  0  0  0  0  0  0
   48.6980  160.4780   31.5960 C   0  0  0  0  0  0  0  0  0  0  0  0
   47.6060  159.9660   32.2290 F   0  0  0  0  0  0  0  0  0  0  0  0
   48.2130  161.4610   30.7820 F   0  0  0  0  0  0  0  0  0  0  0  0
   51.5794  160.6234   32.7038 H   0  0  0  0  0  0  0  0  0  0  0  0
   52.2030  162.2361   32.2170 H   0  0  0  0  0  0  0  0  0  0  0  0
   50.4349  161.9194   32.2170 H   0  0  0  0  0  0  0  0  0  0  0  0
   51.0423  161.7681   29.9384 H   0  0  0  0  0  0  0  0  0  0  0  0
   52.5721  160.8740   30.3336 H   0  0  0  0  0  0  0  0  0  0  0  0
   52.5136  158.8692   29.3173 H   0  0  0  0  0  0  0  0  0  0  0  0
   53.2633  157.3616   25.2686 H   0  0  0  0  0  0  0  0  0  0  0  0
   54.5768  155.8165   23.8102 H   0  0  0  0  0  0  0  0  0  0  0  0
   54.9526  153.4521   24.5147 H   0  0  0  0  0  0  0  0  0  0  0  0
   53.4180  151.8390   27.0450 H   0  0  0  0  0  0  0  0  0  0  0  0
   51.8380  154.5590   31.1930 H   0  0  0  0  0  0  0  0  0  0  0  0
   49.1646  156.1915   29.7848 H   0  0  0  0  0  0  0  0  0  0  0  0
   47.9205  157.9599   31.0042 H   0  0  0  0  0  0  0  0  0  0  0  0
   49.4241  160.8841   32.3156 H   0  0  0  0  0  0  0  0  0  0  0  0
  1  2  1  0
  2  3  1  0
  3  4  2  0
  4  5  1  0
  5  6  1  0
  6  7  1  0
  7  8  1  0
  8  9  2  0
  9 10  1  0
 10 11  2  0
 11 12  1  0
 12 13  1  0
 12 14  2  0
 14 15  1  0
 15 16  2  0
 15 17  1  0
 17 18  1  0
  5 19  2  0
 19 20  1  0
 20 21  2  0
 21 22  1  0
 22 23  1  0
 22 24  1  0
 21  3  1  0
 17  6  2  0
 14  8  1  0
  1 25  1  0
  1 26  1  0
  1 27  1  0
  2 28  1  0
  2 29  1  0
  4 30  1  0
  9 31  1  0
 10 32  1  0
 11 33  1  0
 13 34  1  0
 18 35  1  0
 19 36  1  0
 20 37  1  0
 22 38  1  0
M  END
>  <meeko>  (3) 
{"is_sidechain": [false], "free_energy": -10.709, "intermolecular_energy": -13.495, "internal_energy": 0.186}

$$$$
cand_017_out
     RDKit          3D

 38 40  0  0  0  0  0  0  0  0999 V2000
   51.5290  152.5390   27.7360 C   0  0  0  0  0  0  0  0  0  0  0  0
   52.1280  153.4440   28.8030 C   0  0  0  0  0  0  0  0  0  0  0  0
   52.2570  154.8740   28.3250 C   0  0  0  0  0  0  0  0  0  0  0  0
   51.7600  155.8990   29.1560 C   0  0  0  0  0  0  0  0  0  0  0  0
   51.8450  157.2510   28.7920 C   0  0  0  0  0  0  0  0  0  0  0  0
   51.3460  158.3260   29.6750 C   0  0  0  0  0  0  0  0  0  0  0  0
   50.0210  158.1420   30.0540 O   0  0  0  0  0  0  0  0  0  0  0  0
   49.4320  159.0700   30.8750 C   0  0  0  0  0  0  0  0  0  0  0  0
   48.0960  158.8550   31.2170 C   0  0  0  0  0  0  0  0  0  0  0  0
   47.4370  159.7610   32.0520 C   0  0  0  0  0  0  0  0  0  0  0  0
   48.1120  160.8790   32.5430 C   0  0  0  0  0  0  0  0  0  0  0  0
   49.4450  161.0910   32.2000 C   0  0  0  0  0  0  0  0  0  0  0  0
   50.0460  162.2070   32.7160 O   0  0  0  0  0  0  0  0  0  0  0  0
   50.1040  160.1860   31.3650 C   0  0  0  0  0  0  0  0  0  0  0  0
   51.5030  160.3710   30.9790 C   0  0  0  0  0  0  0  0  0  0  0  0
   52.1680  161.3270   31.3760 O   0  0  0  0  0  0  0  0  0  0  0  0
   52.1080  159.3570   30.0830 C   0  0  0  0  0  0  0  0  0  0  0  0
   53.4340  159.5360   29.7350 O   0  0  0  0  0  0  0  0  0  0  0  0
   52.4590  157.5740   27.5790 C   0  0  0  0  0  0  0  0  0  0  0  0
   52.9610  156.5720   26.7440 C   0  0  0  0  0  0  0  0  0  0  0  0
   52.8720  155.2150   27.1010 C   0  0  0  0  0  0  0  0  0  0  0  0
   53.4120  154.1720   26.1500 C   0  0  0  0  0  0  0  0  0  0  0  0
   54.5500  154.5650   25.5120 F   0  0  0  0  0  0  0  0  0  0  0  0
   52.5390  153.8380   25.1550 F   0  0  0  0  0  0  0  0  0  0  0  0
   50.9834  151.7147   28.2185 H   0  0  0  0  0  0  0  0  0  0  0  0
   50.8364  153.1198   27.1092 H   0  0  0  0  0  0  0  0  0  0  0  0
   52.3343  152.1284   27.1092 H   0  0  0  0  0  0  0  0  0  0  0  0
   51.4795  153.4234   29.6913 H   0  0  0  0  0  0  0  0  0  0  0  0
   53.1360  153.0717   29.0381 H   0  0  0  0  0  0  0  0  0  0  0  0
   51.2931  155.6313   30.1154 H   0  0  0  0  0  0  0  0  0  0  0  0
   47.5630  157.9741   30.8300 H   0  0  0  0  0  0  0  0  0  0  0  0
   46.3842  159.5925   32.3227 H   0  0  0  0  0  0  0  0  0  0  0  0
   47.5921  161.5918   33.2000 H   0  0  0  0  0  0  0  0  0  0  0  0
   50.9420  162.3900   32.5180 H   0  0  0  0  0  0  0  0  0  0  0  0
   54.1120  159.1870   30.2800 H   0  0  0  0  0  0  0  0  0  0  0  0
   52.5482  158.6283   27.2781 H   0  0  0  0  0  0  0  0  0  0  0  0
   53.4341  156.8499   25.7906 H   0  0  0  0  0  0  0  0  0  0  0  0
   53.6007  153.3149   26.8131 H   0  0  0  0  0  0  0  0  0  0  0  0
  1  2  1  0
  2  3  1  0
  3  4  2  0
  4  5  1  0
  5  6  1  0
  6  7  1  0
  7  8  1  0
  8  9  2  0
  9 10  1  0
 10 11  2  0
 11 12  1  0
 12 13  1  0
 12 14  2  0
 14 15  1  0
 15 16  2  0
 15 17  1  0
 17 18  1  0
  5 19  2  0
 19 20  1  0
 20 21  2  0
 21 22  1  0
 22 23  1  0
 22 24  1  0
 21  3  1  0
 17  6  2  0
 14  8  1  0
  1 25  1  0
  1 26  1  0
  1 27  1  0
  2 28  1  0
  2 29  1  0
  4 30  1  0
  9 31  1  0
 10 32  1  0
 11 33  1  0
 13 34  1  0
 18 35  1  0
 19 36  1  0
 20 37  1  0
 22 38  1  0
M  END
>  <meeko>  (4) 
{"is_sidechain": [false], "free_energy": -9.452, "intermolecular_energy": -12.002, "internal_energy": 0.244}

$$$$
cand_017_out
     RDKit          3D

 38 40  0  0  0  0  0  0  0  0999 V2000
   54.0690  156.5760   25.1730 C   0  0  0  0  0  0  0  0  0  0  0  0
   53.4320  155.1960   25.2600 C   0  0  0  0  0  0  0  0  0  0  0  0
   52.8600  154.9210   26.6340 C   0  0  0  0  0  0  0  0  0  0  0  0
   52.2460  155.9880   27.3220 C   0  0  0  0  0  0  0  0  0  0  0  0
   51.6850  155.8200   28.5960 C   0  0  0  0  0  0  0  0  0  0  0  0
   51.0200  156.9330   29.3060 C   0  0  0  0  0  0  0  0  0  0  0  0
   51.8740  157.9990   29.5590 O   0  0  0  0  0  0  0  0  0  0  0  0
   51.3840  159.1000   30.2140 C   0  0  0  0  0  0  0  0  0  0  0  0
   52.2810  160.1400   30.4630 C   0  0  0  0  0  0  0  0  0  0  0  0
   51.8450  161.2920   31.1240 C   0  0  0  0  0  0  0  0  0  0  0  0
   50.5170  161.4010   31.5360 C   0  0  0  0  0  0  0  0  0  0  0  0
   49.6240  160.3620   31.2870 C   0  0  0  0  0  0  0  0  0  0  0  0
   48.3370  160.5360   31.7170 O   0  0  0  0  0  0  0  0  0  0  0  0
   50.0590  159.2110   30.6260 C   0  0  0  0  0  0  0  0  0  0  0  0
   49.1560  158.0950   30.3450 C   0  0  0  0  0  0  0  0  0  0  0  0
   47.9690  158.1190   30.6690 O   0  0  0  0  0  0  0  0  0  0  0  0
   49.7180  156.9160   29.6460 C   0  0  0  0  0  0  0  0  0  0  0  0
   48.8520  155.8730   29.3740 O   0  0  0  0  0  0  0  0  0  0  0  0
   51.7280  154.5490   29.1760 C   0  0  0  0  0  0  0  0  0  0  0  0
   52.3290  153.4790   28.5080 C   0  0  0  0  0  0  0  0  0  0  0  0
   52.8980  153.6450   27.2330 C   0  0  0  0  0  0  0  0  0  0  0  0
   53.5540  152.4580   26.5660 C   0  0  0  0  0  0  0  0  0  0  0  0
   54.8930  152.6250   26.3710 F   0  0  0  0  0  0  0  0  0  0  0  0
   53.0440  152.1760   25.3320 F   0  0  0  0  0  0  0  0  0  0  0  0
   54.2473  156.9622   26.1874 H   0  0  0  0  0  0  0  0  0  0  0  0
   55.0255  156.5051   24.6343 H   0  0  0  0  0  0  0  0  0  0  0  0
   53.3945  157.2579   24.6343 H   0  0  0  0  0  0  0  0  0  0  0  0
   52.6219  155.1314   24.5187 H   0  0  0  0  0  0  0  0  0  0  0  0
   54.2136  154.4479   25.0615 H   0  0  0  0  0  0  0  0  0  0  0  0
   52.2061  156.9790   26.8462 H   0  0  0  0  0  0  0  0  0  0  0  0
   53.3289  160.0533   30.1398 H   0  0  0  0  0  0  0  0  0  0  0  0
   52.5501  162.1134   31.3194 H   0  0  0  0  0  0  0  0  0  0  0  0
   50.1752  162.3073   32.0574 H   0  0  0  0  0  0  0  0  0  0  0  0
   48.1580  161.0970   32.4450 H   0  0  0  0  0  0  0  0  0  0  0  0
   49.1760  155.0830   28.9890 H   0  0  0  0  0  0  0  0  0  0  0  0
   51.2837  154.3893   30.1695 H   0  0  0  0  0  0  0  0  0  0  0  0
   52.3575  152.4896   28.9879 H   0  0  0  0  0  0  0  0  0  0  0  0
   53.3506  151.6400   27.2728 H   0  0  0  0  0  0  0  0  0  0  0  0
  1  2  1  0
  2  3  1  0
  3  4  2  0
  4  5  1  0
  5  6  1  0
  6  7  1  0
  7  8  1  0
  8  9  2  0
  9 10  1  0
 10 11  2  0
 11 12  1  0
 12 13  1  0
 12 14  2  0
 14 15  1  0
 15 16  2  0
 15 17  1  0
 17 18  1  0
  5 19  2  0
 19 20  1  0
 20 21  2  0
 21 22  1  0
 22 23  1  0
 22 24  1  0
 21  3  1  0
 17  6  2  0
 14  8  1  0
  1 25  1  0
  1 26  1  0
  1 27  1  0
  2 28  1  0
  2 29  1  0
  4 30  1  0
  9 31  1  0
 10 32  1  0
 11 33  1  0
 13 34  1  0
 18 35  1  0
 19 36  1  0
 20 37  1  0
 22 38  1  0
M  END
>  <meeko>  (5) 
{"is_sidechain": [false], "free_energy": -9.233, "intermolecular_energy": -11.09, "internal_energy": -0.398}

$$$$
