cand_012_out
     RDKit          3D

 40 42  0  0  0  0  0  0  0  0999 V2000
   49.1200  159.9460   33.0410 C   0  0  0  0  0  0  0  0  0  0  0  0
   48.8810  160.0130   31.5960 N   0  0  0  0  0  0  0  0  0  0  0  0
   47.4640  160.0790   31.2250 C   0  0  0  0  0  0  0  0  0  0  0  0
   49.5730  159.0260   30.8690 C   0  0  0  0  0  0  0  0  0  0  0  0
   48.9780  157.7990   30.5340 C   0  0  0  0  0  0  0  0  0  0  0  0
   49.6710  156.8300   29.8030 C   0  0  0  0  0  0  0  0  0  0  0  0
   50.9810  157.0610   29.3750 C   0  0  0  0  0  0  0  0  0  0  0  0
   51.7480  156.0440   28.6240 C   0  0  0  0  0  0  0  0  0  0  0  0
   52.2710  156.5340   27.4330 O   0  0  0  0  0  0  0  0  0  0  0  0
   53.0030  155.6930   26.6340 C   0  0  0  0  0  0  0  0  0  0  0  0
   53.5200  156.2300   25.4540 C   0  0  0  0  0  0  0  0  0  0  0  0
   54.2740  155.4270   24.5950 C   0  0  0  0  0  0  0  0  0  0  0  0
   54.5110  154.0890   24.9170 C   0  0  0  0  0  0  0  0  0  0  0  0
   53.9940  153.5560   26.0940 C   0  0  0  0  0  0  0  0  0  0  0  0
   54.2640  152.2380   26.3470 O   0  0  0  0  0  0  0  0  0  0  0  0
   53.2410  154.3600   26.9540 C   0  0  0  0  0  0  0  0  0  0  0  0
   52.6790  153.8390   28.2010 C   0  0  0  0  0  0  0  0  0  0  0  0
   52.8380  152.6710   28.5500 O   0  0  0  0  0  0  0  0  0  0  0  0
   51.8990  154.7740   29.0440 C   0  0  0  0  0  0  0  0  0  0  0  0
   51.3590  154.2690   30.2120 O   0  0  0  0  0  0  0  0  0  0  0  0
   51.5820  158.2810   29.7130 C   0  0  0  0  0  0  0  0  0  0  0  0
   50.8940  159.2700   30.4500 C   0  0  0  0  0  0  0  0  0  0  0  0
   51.5860  160.5680   30.7860 C   0  0  0  0  0  0  0  0  0  0  0  0
   50.8950  161.6760   30.3910 F   0  0  0  0  0  0  0  0  0  0  0  0
   52.8080  160.6850   30.1770 F   0  0  0  0  0  0  0  0  0  0  0  0
   51.8460  160.7240   32.1160 F   0  0  0  0  0  0  0  0  0  0  0  0
   48.1956  160.2052   33.5779 H   0  0  0  0  0  0  0  0  0  0  0  0
   49.4294  158.9265   33.3146 H   0  0  0  0  0  0  0  0  0  0  0  0
   49.9143  160.6561   33.3146 H   0  0  0  0  0  0  0  0  0  0  0  0
   46.8475  160.1077   32.1356 H   0  0  0  0  0  0  0  0  0  0  0  0
   47.2825  160.9866   30.6306 H   0  0  0  0  0  0  0  0  0  0  0  0
   47.1989  159.1922   30.6306 H   0  0  0  0  0  0  0  0  0  0  0  0
   47.9451  157.5962   30.8535 H   0  0  0  0  0  0  0  0  0  0  0  0
   49.1800  155.8756   29.5621 H   0  0  0  0  0  0  0  0  0  0  0  0
   53.3339  157.2842   25.2008 H   0  0  0  0  0  0  0  0  0  0  0  0
   54.6813  155.8489   23.6643 H   0  0  0  0  0  0  0  0  0  0  0  0
   55.1057  153.4570   24.2410 H   0  0  0  0  0  0  0  0  0  0  0  0
   54.1920  151.9040   27.2190 H   0  0  0  0  0  0  0  0  0  0  0  0
   50.8790  153.4640   30.1960 H   0  0  0  0  0  0  0  0  0  0  0  0
   52.6175  158.4735   29.3957 H   0  0  0  0  0  0  0  0  0  0  0  0
  1  2  1  0
  2  3  1  0
  2  4  1  0
  4  5  2  0
  5  6  1  0
  6  7  2  0
  7  8  1  0
  8  9  1  0
  9 10  1  0
 10 11  2  0
 11 12  1  0
 12 13  2  0
 13 14  1  0
 14 15  1  0
 14 16  2  0
 16 17  1  0
 17 18  2  0
 17 19  1  0
 19 20  1  0
  7 21  1  0
 21 22  2  0
 22 23  1  0
 23 24  1  0
 23 25  1  0
 23 26  1  0
 22  4  1  0
 19  8  2  0
 16 10  1  0
  1 27  1  0
  1 28  1  0
  1 29  1  0
  3 30  1  0
  3 31  1  0
  3 32  1  0
  5 33  1  0
  6 34  1  0
 11 35  1  0
 12 36  1  0
 13 37  1  0
 15 38  1  0
 20 39  1  0
 21 40  1  0
M  END
>  <meeko>  (1) 
{"is_sidechain": [false], "free_energy": -10.411, "intermolecular_energy": -12.846, "internal_energy": -0.068}

$$$$
cand_012_out
     RDKit          3D

 40 42  0  0  0  0  0  0  0  0999 V2000
   51.1320  162.1040   31.2930 C   0  0  0  0  0  0  0  0  0  0  0  0
   50.2660  160.9290   31.4320 N   0  0  0  0  0  0  0  0  0  0  0  0
   49.9130  160.6050   32.8180 C   0  0  0  0  0  0  0  0  0  0  0  0
   50.7330  159.8040   30.7270 C   0  0  0  0  0  0  0  0  0  0  0  0
   52.0890  159.6470   30.3980 C   0  0  0  0  0  0  0  0  0  0  0  0
   52.5430  158.5200   29.7060 C   0  0  0  0  0  0  0  0  0  0  0  0
   51.6570  157.5090   29.3290 C   0  0  0  0  0  0  0  0  0  0  0  0
   52.1040  156.3190   28.5740 C   0  0  0  0  0  0  0  0  0  0  0  0
   52.6360  156.6380   27.3300 O   0  0  0  0  0  0  0  0  0  0  0  0
   53.0870  155.6260   26.5210 C   0  0  0  0  0  0  0  0  0  0  0  0
   53.6250  155.9930   25.2870 C   0  0  0  0  0  0  0  0  0  0  0  0
   54.1020  155.0110   24.4160 C   0  0  0  0  0  0  0  0  0  0  0  0
   54.0410  153.6640   24.7790 C   0  0  0  0  0  0  0  0  0  0  0  0
   53.5040  153.3010   26.0110 C   0  0  0  0  0  0  0  0  0  0  0  0
   53.4740  151.9650   26.3020 O   0  0  0  0  0  0  0  0  0  0  0  0
   53.0280  154.2840   26.8830 C   0  0  0  0  0  0  0  0  0  0  0  0
   52.4550  153.9460   28.1860 C   0  0  0  0  0  0  0  0  0  0  0  0
   52.3610  152.7830   28.5750 O   0  0  0  0  0  0  0  0  0  0  0  0
   51.9830  155.0620   29.0380 C   0  0  0  0  0  0  0  0  0  0  0  0
   51.4300  154.7310   30.2610 O   0  0  0  0  0  0  0  0  0  0  0  0
   50.3000  157.6650   29.6500 C   0  0  0  0  0  0  0  0  0  0  0  0
   49.8270  158.7970   30.3490 C   0  0  0  0  0  0  0  0  0  0  0  0
   48.3580  158.9140   30.6720 C   0  0  0  0  0  0  0  0  0  0  0  0
   48.0450  158.5400   31.9460 F   0  0  0  0  0  0  0  0  0  0  0  0
   47.5790  158.1180   29.8740 F   0  0  0  0  0  0  0  0  0  0  0  0
   47.8570  160.1710   30.5000 F   0  0  0  0  0  0  0  0  0  0  0  0
   51.4069  162.4770   32.2907 H   0  0  0  0  0  0  0  0  0  0  0  0
   52.0424  161.8254   30.7420 H   0  0  0  0  0  0  0  0  0  0  0  0
   50.5964  162.8911   30.7420 H   0  0  0  0  0  0  0  0  0  0  0  0
   50.5468  161.1868   33.5034 H   0  0  0  0  0  0  0  0  0  0  0  0
   48.8564  160.8543   32.9951 H   0  0  0  0  0  0  0  0  0  0  0  0
   50.0710  159.5309   32.9951 H   0  0  0  0  0  0  0  0  0  0  0  0
   52.8084  160.4261   30.6905 H   0  0  0  0  0  0  0  0  0  0  0  0
   53.6103  158.4289   29.4558 H   0  0  0  0  0  0  0  0  0  0  0  0
   53.6734  157.0540   25.0007 H   0  0  0  0  0  0  0  0  0  0  0  0
   54.5263  155.2990   23.4428 H   0  0  0  0  0  0  0  0  0  0  0  0
   54.4167  152.8909   24.0925 H   0  0  0  0  0  0  0  0  0  0  0  0
   53.4440  151.3350   25.6090 H   0  0  0  0  0  0  0  0  0  0  0  0
   50.6820  154.1660   30.2990 H   0  0  0  0  0  0  0  0  0  0  0  0
   49.5856  156.8846   29.3491 H   0  0  0  0  0  0  0  0  0  0  0  0
  1  2  1  0
  2  3  1  0
  2  4  1  0
  4  5  2  0
  5  6  1  0
  6  7  2  0
  7  8  1  0
  8  9  1  0
  9 10  1  0
 10 11  2  0
 11 12  1  0
 12 13  2  0
 13 14  1  0
 14 15  1  0
 14 16  2  0
 16 17  1  0
 17 18  2  0
 17 19  1  0
 19 20  1  0
  7 21  1  0
 21 22  2  0
 22 23  1  0
 23 24  1  0
 23 25  1  0
 23 26  1  0
 22  4  1  0
 19  8  2  0
 16 10  1  0
  1 27  1  0
  1 28  1  0
  1 29  1  0
  3 30  1  0
  3 31  1  0
  3 32  1  0
  5 33  1  0
  6 34  1  0
 11 35  1  0
 12 36  1  0
 13 37  1  0
 15 38  1  0
 20 39  1  0
 21 40  1  0
M  END
>  <meeko>  (2) 
{"is_sidechain": [false], "free_energy": -10.082, "intermolecular_energy": -12.849, "internal_energy": 0.341}

$$$$
cand_012_out
     RDKit          3D

 40 42  0  0  0  0  0  0  0  0999 V2000
   51.8540  152.0030   26.6580 C   0  0  0  0  0  0  0  0  0  0  0  0
   52.7680  153.1390   26.5090 N   0  0  0  0  0  0  0  0  0  0  0  0
   54.1830  152.7970   26.6890 C   0  0  0  0  0  0  0  0  0  0  0  0
   52.3940  154.2620   27.2710 C   0  0  0  0  0  0  0  0  0  0  0  0
   51.8270  154.1330   28.5490 C   0  0  0  0  0  0  0  0  0  0  0  0
   51.4680  155.2560   29.3020 C   0  0  0  0  0  0  0  0  0  0  0  0
   51.6720  156.5440   28.8030 C   0  0  0  0  0  0  0  0  0  0  0  0
   51.2780  157.7490   29.5640 C   0  0  0  0  0  0  0  0  0  0  0  0
   49.9510  157.7160   29.9770 O   0  0  0  0  0  0  0  0  0  0  0  0
   49.4510  158.7750   30.6910 C   0  0  0  0  0  0  0  0  0  0  0  0
   48.1180  158.6940   31.0950 C   0  0  0  0  0  0  0  0  0  0  0  0
   47.5480  159.7390   31.8250 C   0  0  0  0  0  0  0  0  0  0  0  0
   48.3090  160.8630   32.1510 C   0  0  0  0  0  0  0  0  0  0  0  0
   49.6390  160.9410   31.7450 C   0  0  0  0  0  0  0  0  0  0  0  0
   50.3270  162.0700   32.0980 O   0  0  0  0  0  0  0  0  0  0  0  0
   50.2100  159.8950   31.0160 C   0  0  0  0  0  0  0  0  0  0  0  0
   51.6030  159.9370   30.5700 C   0  0  0  0  0  0  0  0  0  0  0  0
   52.3360  160.8940   30.8110 O   0  0  0  0  0  0  0  0  0  0  0  0
   52.1140  158.7750   29.8070 C   0  0  0  0  0  0  0  0  0  0  0  0
   53.4270  158.8310   29.3770 O   0  0  0  0  0  0  0  0  0  0  0  0
   52.2320  156.6770   27.5230 C   0  0  0  0  0  0  0  0  0  0  0  0
   52.6000  155.5530   26.7530 C   0  0  0  0  0  0  0  0  0  0  0  0
   53.2010  155.7510   25.3830 C   0  0  0  0  0  0  0  0  0  0  0  0
   54.5560  155.5960   25.3500 F   0  0  0  0  0  0  0  0  0  0  0  0
   52.9840  157.0110   24.8910 F   0  0  0  0  0  0  0  0  0  0  0  0
   52.6900  154.9170   24.4330 F   0  0  0  0  0  0  0  0  0  0  0  0
   51.6914  151.8010   27.7270 H   0  0  0  0  0  0  0  0  0  0  0  0
   50.8925  152.2408   26.1794 H   0  0  0  0  0  0  0  0  0  0  0  0
   52.2921  151.1147   26.1794 H   0  0  0  0  0  0  0  0  0  0  0  0
   54.4130  152.7414   27.7632 H   0  0  0  0  0  0  0  0  0  0  0  0
   54.3876  151.8235   26.2194 H   0  0  0  0  0  0  0  0  0  0  0  0
   54.8096  153.5696   26.2194 H   0  0  0  0  0  0  0  0  0  0  0  0
   51.6618  153.1288   28.9665 H   0  0  0  0  0  0  0  0  0  0  0  0
   51.0202  155.1229   30.2979 H   0  0  0  0  0  0  0  0  0  0  0  0
   47.5173  157.8088   30.8390 H   0  0  0  0  0  0  0  0  0  0  0  0
   46.4971  159.6764   32.1439 H   0  0  0  0  0  0  0  0  0  0  0  0
   47.8593  161.6851   32.7271 H   0  0  0  0  0  0  0  0  0  0  0  0
   50.0220  162.9110   31.8180 H   0  0  0  0  0  0  0  0  0  0  0  0
   54.1070  158.4520   29.8990 H   0  0  0  0  0  0  0  0  0  0  0  0
   52.3882  157.6840   27.1089 H   0  0  0  0  0  0  0  0  0  0  0  0
  1  2  1  0
  2  3  1  0
  2  4  1  0
  4  5  2  0
  5  6  1  0
  6  7  2  0
  7  8  1  0
  8  9  1  0
  9 10  1  0
 10 11  2  0
 11 12  1  0
 12 13  2  0
 13 14  1  0
 14 15  1  0
 14 16  2  0
 16 17  1  0
 17 18  2  0
 17 19  1  0
 19 20  1  0
  7 21  1  0
 21 22  2  0
 22 23  1  0
 23 24  1  0
 23 25  1  0
 23 26  1  0
 22  4  1  0
 19  8  2  0
 16 10  1  0
  1 27  1  0
  1 28  1  0
  1 29  1  0
  3 30  1  0
  3 31  1  0
  3 32  1  0
  5 33  1  0
  6 34  1  0
 11 35  1  0
 12 36  1  0
 13 37  1  0
 15 38  1  0
 20 39  1  0
 21 40  1  0
M  END
>  <meeko>  (3) 
{"is_sidechain": [false], "free_energy": -9.872, "intermolecular_energy": -12.205, "internal_energy": -0.043}

$$$$
cand_012_out
     RDKit          3D

 40 42  0  0  0  0  0  0  0  0999 V2000
   54.3920  154.7650   25.4250 C   0  0  0  0  0  0  0  0  0  0  0  0
   53.3110  154.3320   26.3160 N   0  0  0  0  0  0  0  0  0  0  0  0
   52.2280  153.6120   25.6370 C   0  0  0  0  0  0  0  0  0  0  0  0
   52.8250  155.3580   27.1480 C   0  0  0  0  0  0  0  0  0  0  0  0
   52.9480  156.7120   26.8010 C   0  0  0  0  0  0  0  0  0  0  0  0
   52.4540  157.7240   27.6300 C   0  0  0  0  0  0  0  0  0  0  0  0
   51.8120  157.4110   28.8310 C   0  0  0  0  0  0  0  0  0  0  0  0
   51.3030  158.4590   29.7410 C   0  0  0  0  0  0  0  0  0  0  0  0
   49.9630  158.2870   30.0670 O   0  0  0  0  0  0  0  0  0  0  0  0
   49.3610  159.1920   30.9030 C   0  0  0  0  0  0  0  0  0  0  0  0
   48.0180  158.9730   31.2140 C   0  0  0  0  0  0  0  0  0  0  0  0
   47.3460  159.8590   32.0590 C   0  0  0  0  0  0  0  0  0  0  0  0
   48.0160  160.9610   32.5930 C   0  0  0  0  0  0  0  0  0  0  0  0
   49.3560  161.1770   32.2810 C   0  0  0  0  0  0  0  0  0  0  0  0
   49.9500  162.2770   32.8380 O   0  0  0  0  0  0  0  0  0  0  0  0
   50.0280  160.2910   31.4360 C   0  0  0  0  0  0  0  0  0  0  0  0
   51.4360  160.4810   31.0820 C   0  0  0  0  0  0  0  0  0  0  0  0
   52.0920  161.4300   31.5070 O   0  0  0  0  0  0  0  0  0  0  0  0
   52.0570  159.4820   30.1830 C   0  0  0  0  0  0  0  0  0  0  0  0
   53.3830  159.6790   29.8430 O   0  0  0  0  0  0  0  0  0  0  0  0
   51.6930  156.0590   29.1850 C   0  0  0  0  0  0  0  0  0  0  0  0
   52.1870  155.0280   28.3570 C   0  0  0  0  0  0  0  0  0  0  0  0
   52.0310  153.5890   28.7830 C   0  0  0  0  0  0  0  0  0  0  0  0
   51.0890  152.9050   28.0710 F   0  0  0  0  0  0  0  0  0  0  0  0
   51.6350  153.4670   30.0890 F   0  0  0  0  0  0  0  0  0  0  0  0
   53.1840  152.8640   28.7030 F   0  0  0  0  0  0  0  0  0  0  0  0
   55.2473  155.1076   26.0258 H   0  0  0  0  0  0  0  0  0  0  0  0
   54.7038  153.9224   24.7904 H   0  0  0  0  0  0  0  0  0  0  0  0
   54.0359  155.5899   24.7904 H   0  0  0  0  0  0  0  0  0  0  0  0
   51.5576  153.1663   26.3866 H   0  0  0  0  0  0  0  0  0  0  0  0
   51.6599  154.3129   25.0076 H   0  0  0  0  0  0  0  0  0  0  0  0
   52.6544  152.8170   25.0076 H   0  0  0  0  0  0  0  0  0  0  0  0
   53.4434  156.9831   25.8570 H   0  0  0  0  0  0  0  0  0  0  0  0
   52.5719  158.7768   27.3338 H   0  0  0  0  0  0  0  0  0  0  0  0
   47.4898  158.1042   30.7943 H   0  0  0  0  0  0  0  0  0  0  0  0
   46.2873  159.6882   32.3040 H   0  0  0  0  0  0  0  0  0  0  0  0
   47.4864  161.6578   33.2593 H   0  0  0  0  0  0  0  0  0  0  0  0
   50.7490  162.1840   33.3190 H   0  0  0  0  0  0  0  0  0  0  0  0
   54.0360  159.7340   30.5130 H   0  0  0  0  0  0  0  0  0  0  0  0
   51.2016  155.7951   30.1331 H   0  0  0  0  0  0  0  0  0  0  0  0
  1  2  1  0
  2  3  1  0
  2  4  1  0
  4  5  2  0
  5  6  1  0
  6  7  2  0
  7  8  1  0
  8  9  1  0
  9 10  1  0
 10 11  2  0
 11 12  1  0
 12 13  2  0
 13 14  1  0
 14 15  1  0
 14 16  2  0
 16 17  1  0
 17 18  2  0
 17 19  1  0
 19 20  1  0
  7 21  1  0
 21 22  2  0
 22 23  1  0
 23 24  1  0
 23 25  1  0
 23 26  1  0
 22  4  1  0
 19  8  2  0
 16 10  1  0
  1 27  1  0
  1 28  1  0
  1 29  1  0
  3 30  1  0
  3 31  1  0
  3 32  1  0
  5 33  1  0
  6 34  1  0
 11 35  1  0
 12 36  1  0
 13 37  1  0
 15 38  1  0
 20 39  1  0
 21 40  1  0
M  END
>  <meeko>  (4) 
{"is_sidechain": [false], "free_energy": -8.571, "intermolecular_energy": -11.034, "internal_energy": 0.391}

$$$$
cand_012_out
     RDKit          3D

 40 42  0  0  0  0  0  0  0  0999 V2000
   52.7810  151.8010   25.9120 C   0  0  0  0  0  0  0  0  0  0  0  0
   53.5850  153.0180   26.0600 N   0  0  0  0  0  0  0  0  0  0  0  0
   54.9740  152.7730   26.4650 C   0  0  0  0  0  0  0  0  0  0  0  0
   52.9680  154.0030   26.8530 C   0  0  0  0  0  0  0  0  0  0  0  0
   52.4100  153.7020   28.1060 C   0  0  0  0  0  0  0  0  0  0  0  0
   51.8080  154.6910   28.8900 C   0  0  0  0  0  0  0  0  0  0  0  0
   51.7510  156.0150   28.4500 C   0  0  0  0  0  0  0  0  0  0  0  0
   51.0970  157.0760   29.2450 C   0  0  0  0  0  0  0  0  0  0  0  0
   51.9350  158.1550   29.4990 O   0  0  0  0  0  0  0  0  0  0  0  0
   51.4560  159.2110   30.2310 C   0  0  0  0  0  0  0  0  0  0  0  0
   52.3280  160.2780   30.4510 C   0  0  0  0  0  0  0  0  0  0  0  0
   51.9010  161.3840   31.1900 C   0  0  0  0  0  0  0  0  0  0  0  0
   50.6050  161.4230   31.7070 C   0  0  0  0  0  0  0  0  0  0  0  0
   49.7380  160.3560   31.4860 C   0  0  0  0  0  0  0  0  0  0  0  0
   48.4820  160.4600   32.0220 O   0  0  0  0  0  0  0  0  0  0  0  0
   50.1640  159.2510   30.7460 C   0  0  0  0  0  0  0  0  0  0  0  0
   49.2840  158.1090   30.4910 C   0  0  0  0  0  0  0  0  0  0  0  0
   48.1320  158.0650   30.9180 O   0  0  0  0  0  0  0  0  0  0  0  0
   49.8300  156.9890   29.6910 C   0  0  0  0  0  0  0  0  0  0  0  0
   48.9970  155.9080   29.4690 O   0  0  0  0  0  0  0  0  0  0  0  0
   52.3000  156.3190   27.1950 C   0  0  0  0  0  0  0  0  0  0  0  0
   52.9120  155.3310   26.3930 C   0  0  0  0  0  0  0  0  0  0  0  0
   53.4910  155.7110   25.0530 C   0  0  0  0  0  0  0  0  0  0  0  0
   54.8540  155.7570   25.0360 F   0  0  0  0  0  0  0  0  0  0  0  0
   53.0970  156.9590   24.6440 F   0  0  0  0  0  0  0  0  0  0  0  0
   53.1160  154.8810   24.0370 F   0  0  0  0  0  0  0  0  0  0  0  0
   52.5222  151.4093   26.9068 H   0  0  0  0  0  0  0  0  0  0  0  0
   51.8594  152.0354   25.3591 H   0  0  0  0  0  0  0  0  0  0  0  0
   53.3582  151.0452   25.3591 H   0  0  0  0  0  0  0  0  0  0  0  0
   55.0392  152.7615   27.5630 H   0  0  0  0  0  0  0  0  0  0  0  0
   55.3060  151.8024   26.0678 H   0  0  0  0  0  0  0  0  0  0  0  0
   55.6180  153.5714   26.0678 H   0  0  0  0  0  0  0  0  0  0  0  0
   52.4472  152.6675   28.4782 H   0  0  0  0  0  0  0  0  0  0  0  0
   51.3743  154.4229   29.8647 H   0  0  0  0  0  0  0  0  0  0  0  0
   53.3493  160.2483   30.0435 H   0  0  0  0  0  0  0  0  0  0  0  0
   52.5873  162.2257   31.3648 H   0  0  0  0  0  0  0  0  0  0  0  0
   50.2693  162.2948   32.2878 H   0  0  0  0  0  0  0  0  0  0  0  0
   47.7750  160.7830   31.4990 H   0  0  0  0  0  0  0  0  0  0  0  0
   49.0250  155.1690   30.0450 H   0  0  0  0  0  0  0  0  0  0  0  0
   52.2524  157.3542   26.8262 H   0  0  0  0  0  0  0  0  0  0  0  0
  1  2  1  0
  2  3  1  0
  2  4  1  0
  4  5  2  0
  5  6  1  0
  6  7  2  0
  7  8  1  0
  8  9  1  0
  9 10  1  0
 10 11  2  0
 11 12  1  0
 12 13  2  0
 13 14  1  0
 14 15  1  0
 14 16  2  0
 16 17  1  0
 17 18  2  0
 17 19  1  0
 19 20  1  0
  7 21  1  0
 21 22  2  0
 22 23  1  0
 23 24  1  0
 23 25  1  0
 23 26  1  0
 22  4  1  0
 19  8  2  0
 16 10  1  0
  1 27  1  0
  1 28  1  0
  1 29  1  0
  3 30  1  0
  3 31  1  0
  3 32  1  0
  5 33  1  0
  6 34  1  0
 11 35  1  0
 12 36  1  0
 13 37  1  0
 15 38  1  0
 20 39  1  0
 21 40  1  0
M  END
>  <meeko>  (5) 
{"is_sidechain": [false], "free_energy": -7.86, "intermolecular_energy": -9.448, "internal_energy": -0.318}

$$$$
