cand_037_out
     RDKit          3D

 35 37  0  0  0  0  0  0  0  0999 V2000
   52.1850  161.0670   30.6150 C   0  0  0  0  0  0  0  0  0  0  0  0
   51.3400  159.8340   30.4480 C   0  0  0  0  0  0  0  0  0  0  0  0
   51.8740  158.7280   29.7610 C   0  0  0  0  0  0  0  0  0  0  0  0
   51.1340  157.5520   29.5700 C   0  0  0  0  0  0  0  0  0  0  0  0
   51.7270  156.4210   28.8240 C   0  0  0  0  0  0  0  0  0  0  0  0
   52.3110  156.8120   27.6250 O   0  0  0  0  0  0  0  0  0  0  0  0
   52.9010  155.8610   26.8330 C   0  0  0  0  0  0  0  0  0  0  0  0
   53.4620  156.2960   25.6300 C   0  0  0  0  0  0  0  0  0  0  0  0
   54.0790  155.3780   24.7780 C   0  0  0  0  0  0  0  0  0  0  0  0
   54.1370  154.0270   25.1260 C   0  0  0  0  0  0  0  0  0  0  0  0
   53.5770  153.5960   26.3260 C   0  0  0  0  0  0  0  0  0  0  0  0
   53.6690  152.2600   26.6060 O   0  0  0  0  0  0  0  0  0  0  0  0
   52.9580  154.5140   27.1790 C   0  0  0  0  0  0  0  0  0  0  0  0
   52.3570  154.1030   28.4490 C   0  0  0  0  0  0  0  0  0  0  0  0
   52.3730  152.9350   28.8280 O   0  0  0  0  0  0  0  0  0  0  0  0
   51.7180  155.1530   29.2770 C   0  0  0  0  0  0  0  0  0  0  0  0
   51.1660  154.7560   30.4800 O   0  0  0  0  0  0  0  0  0  0  0  0
   49.8260  157.5030   30.0630 C   0  0  0  0  0  0  0  0  0  0  0  0
   49.2770  158.5960   30.7380 C   0  0  0  0  0  0  0  0  0  0  0  0
   50.0160  159.7740   30.9280 C   0  0  0  0  0  0  0  0  0  0  0  0
   49.3870  160.9200   31.6790 C   0  0  0  0  0  0  0  0  0  0  0  0
   48.4680  161.6090   30.9450 F   0  0  0  0  0  0  0  0  0  0  0  0
   52.3259  161.2726   31.6864 H   0  0  0  0  0  0  0  0  0  0  0  0
   53.1644  160.9074   30.1404 H   0  0  0  0  0  0  0  0  0  0  0  0
   51.6827  161.9228   30.1404 H   0  0  0  0  0  0  0  0  0  0  0  0
   52.8980  158.7873   29.3636 H   0  0  0  0  0  0  0  0  0  0  0  0
   53.4178  157.3600   25.3544 H   0  0  0  0  0  0  0  0  0  0  0  0
   54.5205  155.7199   23.8303 H   0  0  0  0  0  0  0  0  0  0  0  0
   54.6238  153.3049   24.4540 H   0  0  0  0  0  0  0  0  0  0  0  0
   53.8890  151.6530   25.9270 H   0  0  0  0  0  0  0  0  0  0  0  0
   50.5730  154.0320   30.5060 H   0  0  0  0  0  0  0  0  0  0  0  0
   49.2233  156.5944   29.9177 H   0  0  0  0  0  0  0  0  0  0  0  0
   48.2499  158.5324   31.1265 H   0  0  0  0  0  0  0  0  0  0  0  0
   48.8886  160.5188   32.5738 H   0  0  0  0  0  0  0  0  0  0  0  0
   50.1936  161.6237   31.9325 H   0  0  0  0  0  0  0  0  0  0  0  0
  1  2  1  0
  2  3  2  0
  3  4  1  0
  4  5  1  0
  5  6  1  0
  6  7  1  0
  7  8  2  0
  8  9  1  0
  9 10  2  0
 10 11  1  0
 11 12  1  0
 11 13  2  0
 13 14  1  0
 14 15  2  0
 14 16  1  0
 16 17  1  0
  4 18  2  0
 18 19  1  0
 19 20  2  0
 20 21  1  0
 21 22  1  0
 20  2  1  0
 16  5  2  0
 13  7  1  0
  1 23  1  0
  1 24  1  0
  1 25  1  0
  3 26  1  0
  8 27  1  0
  9 28  1  0
 10 29  1  0
 12 30  1  0
 17 31  1  0
 18 32  1  0
 19 33  1  0
 21 34  1  0
 21 35  1  0
M  END
>  <meeko>  (1) 
{"is_sidechain": [false], "free_energy": -10.576, "intermolecular_energy": -12.431, "internal_energy": -0.194}

$$$$
cand_037_out
     RDKit          3D

 35 37  0  0  0  0  0  0  0  0999 V2000
   48.2530  158.8690   31.3400 C   0  0  0  0  0  0  0  0  0  0  0  0
   49.6480  158.9110   30.7780 C   0  0  0  0  0  0  0  0  0  0  0  0
   50.1280  157.8000   30.0600 C   0  0  0  0  0  0  0  0  0  0  0  0
   51.4200  157.7770   29.5150 C   0  0  0  0  0  0  0  0  0  0  0  0
   51.8900  156.5810   28.7840 C   0  0  0  0  0  0  0  0  0  0  0  0
   52.4900  156.8910   27.5690 O   0  0  0  0  0  0  0  0  0  0  0  0
   52.9740  155.8730   26.7880 C   0  0  0  0  0  0  0  0  0  0  0  0
   53.5560  156.2300   25.5700 C   0  0  0  0  0  0  0  0  0  0  0  0
   54.0690  155.2410   24.7280 C   0  0  0  0  0  0  0  0  0  0  0  0
   54.0020  153.8980   25.1030 C   0  0  0  0  0  0  0  0  0  0  0  0
   53.4230  153.5440   26.3190 C   0  0  0  0  0  0  0  0  0  0  0  0
   53.3910  152.2110   26.6240 O   0  0  0  0  0  0  0  0  0  0  0  0
   52.9070  154.5340   27.1610 C   0  0  0  0  0  0  0  0  0  0  0  0
   52.2890  154.2060   28.4470 C   0  0  0  0  0  0  0  0  0  0  0  0
   52.2000  153.0490   28.8500 O   0  0  0  0  0  0  0  0  0  0  0  0
   51.7670  155.3280   29.2620 C   0  0  0  0  0  0  0  0  0  0  0  0
   51.1990  155.0090   30.4810 O   0  0  0  0  0  0  0  0  0  0  0  0
   52.2470  158.8860   29.7200 C   0  0  0  0  0  0  0  0  0  0  0  0
   51.7900  159.9930   30.4410 C   0  0  0  0  0  0  0  0  0  0  0  0
   50.4970  160.0160   30.9870 C   0  0  0  0  0  0  0  0  0  0  0  0
   50.0430  161.2400   31.7410 C   0  0  0  0  0  0  0  0  0  0  0  0
   50.0460  161.0750   33.0940 F   0  0  0  0  0  0  0  0  0  0  0  0
   48.3002  158.8704   32.4390 H   0  0  0  0  0  0  0  0  0  0  0  0
   47.6924  159.7507   30.9960 H   0  0  0  0  0  0  0  0  0  0  0  0
   47.7464  157.9552   30.9960 H   0  0  0  0  0  0  0  0  0  0  0  0
   49.4729  156.9271   29.9227 H   0  0  0  0  0  0  0  0  0  0  0  0
   53.6103  157.2881   25.2743 H   0  0  0  0  0  0  0  0  0  0  0  0
   54.5267  155.5207   23.7676 H   0  0  0  0  0  0  0  0  0  0  0  0
   54.4062  153.1201   24.4386 H   0  0  0  0  0  0  0  0  0  0  0  0
   53.8870  151.6020   26.1140 H   0  0  0  0  0  0  0  0  0  0  0  0
   50.2680  154.9300   30.5570 H   0  0  0  0  0  0  0  0  0  0  0  0
   53.2676  158.8872   29.3097 H   0  0  0  0  0  0  0  0  0  0  0  0
   52.4535  160.8589   30.5826 H   0  0  0  0  0  0  0  0  0  0  0  0
   50.7156  162.0734   31.4900 H   0  0  0  0  0  0  0  0  0  0  0  0
   49.0037  161.4392   31.4407 H   0  0  0  0  0  0  0  0  0  0  0  0
  1  2  1  0
  2  3  2  0
  3  4  1  0
  4  5  1  0
  5  6  1  0
  6  7  1  0
  7  8  2  0
  8  9  1  0
  9 10  2  0
 10 11  1  0
 11 12  1  0
 11 13  2  0
 13 14  1  0
 14 15  2  0
 14 16  1  0
 16 17  1  0
  4 18  2  0
 18 19  1  0
 19 20  2  0
 20 21  1  0
 21 22  1  0
 20  2  1  0
 16  5  2  0
 13  7  1  0
  1 23  1  0
  1 24  1  0
  1 25  1  0
  3 26  1  0
  8 27  1  0
  9 28  1  0
 10 29  1  0
 12 30  1  0
 17 31  1  0
 18 32  1  0
 19 33  1  0
 21 34  1  0
 21 35  1  0
M  END
>  <meeko>  (2) 
{"is_sidechain": [false], "free_energy": -10.394, "intermolecular_energy": -12.273, "internal_energy": -0.138}

$$$$
cand_037_out
     RDKit          3D

 35 37  0  0  0  0  0  0  0  0999 V2000
   53.6610  155.3440   25.4250 C   0  0  0  0  0  0  0  0  0  0  0  0
   52.9260  155.1880   26.7280 C   0  0  0  0  0  0  0  0  0  0  0  0
   52.5300  156.3410   27.4300 C   0  0  0  0  0  0  0  0  0  0  0  0
   51.8450  156.2620   28.6520 C   0  0  0  0  0  0  0  0  0  0  0  0
   51.4650  157.4990   29.3660 C   0  0  0  0  0  0  0  0  0  0  0  0
   50.1380  157.4970   29.7820 O   0  0  0  0  0  0  0  0  0  0  0  0
   49.6540  158.5870   30.4590 C   0  0  0  0  0  0  0  0  0  0  0  0
   48.3130  158.5480   30.8460 C   0  0  0  0  0  0  0  0  0  0  0  0
   47.7570  159.6240   31.5400 C   0  0  0  0  0  0  0  0  0  0  0  0
   48.5410  160.7380   31.8490 C   0  0  0  0  0  0  0  0  0  0  0  0
   49.8780  160.7740   31.4640 C   0  0  0  0  0  0  0  0  0  0  0  0
   50.5880  161.8950   31.7990 O   0  0  0  0  0  0  0  0  0  0  0  0
   50.4340  159.6970   30.7670 C   0  0  0  0  0  0  0  0  0  0  0  0
   51.8350  159.6950   30.3430 C   0  0  0  0  0  0  0  0  0  0  0  0
   52.5900  160.6340   30.5830 O   0  0  0  0  0  0  0  0  0  0  0  0
   52.3250  158.5070   29.6040 C   0  0  0  0  0  0  0  0  0  0  0  0
   53.6530  158.5090   29.2200 O   0  0  0  0  0  0  0  0  0  0  0  0
   51.5770  154.9950   29.1810 C   0  0  0  0  0  0  0  0  0  0  0  0
   51.9730  153.8400   28.5020 C   0  0  0  0  0  0  0  0  0  0  0  0
   52.6600  153.9190   27.2800 C   0  0  0  0  0  0  0  0  0  0  0  0
   53.0500  152.6440   26.5760 C   0  0  0  0  0  0  0  0  0  0  0  0
   52.0510  151.7180   26.5380 F   0  0  0  0  0  0  0  0  0  0  0  0
   54.7190  155.5685   25.6254 H   0  0  0  0  0  0  0  0  0  0  0  0
   53.5872  154.4102   24.8483 H   0  0  0  0  0  0  0  0  0  0  0  0
   53.2143  156.1673   24.8483 H   0  0  0  0  0  0  0  0  0  0  0  0
   52.7635  157.3304   27.0099 H   0  0  0  0  0  0  0  0  0  0  0  0
   47.6954  157.6704   30.6043 H   0  0  0  0  0  0  0  0  0  0  0  0
   46.7002  159.5946   31.8439 H   0  0  0  0  0  0  0  0  0  0  0  0
   48.1023  161.5857   32.3959 H   0  0  0  0  0  0  0  0  0  0  0  0
   50.9270  162.4530   31.1270 H   0  0  0  0  0  0  0  0  0  0  0  0
   53.9930  159.2200   28.7130 H   0  0  0  0  0  0  0  0  0  0  0  0
   51.0488  154.9072   30.1419 H   0  0  0  0  0  0  0  0  0  0  0  0
   51.7431  152.8537   28.9313 H   0  0  0  0  0  0  0  0  0  0  0  0
   53.3365  152.8901   25.5429 H   0  0  0  0  0  0  0  0  0  0  0  0
   53.8811  152.2011   27.1444 H   0  0  0  0  0  0  0  0  0  0  0  0
  1  2  1  0
  2  3  2  0
  3  4  1  0
  4  5  1  0
  5  6  1  0
  6  7  1  0
  7  8  2  0
  8  9  1  0
  9 10  2  0
 10 11  1  0
 11 12  1  0
 11 13  2  0
 13 14  1  0
 14 15  2  0
 14 16  1  0
 16 17  1  0
  4 18  2  0
 18 19  1  0
 19 20  2  0
 20 21  1  0
 21 22  1  0
 20  2  1  0
 16  5  2  0
 13  7  1  0
  1 23  1  0
  1 24  1  0
  1 25  1  0
  3 26  1  0
  8 27  1  0
  9 28  1  0
 10 29  1  0
 12 30  1  0
 17 31  1  0
 18 32  1  0
 19 33  1  0
 21 34  1  0
 21 35  1  0
M  END
>  <meeko>  (3) 
{"is_sidechain": [false], "free_energy": -9.885, "intermolecular_energy": -11.697, "internal_energy": -0.116}

$$$$
cand_037_out
     RDKit          3D

 35 37  0  0  0  0  0  0  0  0999 V2000
   53.7460  155.7100   25.5300 C   0  0  0  0  0  0  0  0  0  0  0  0
   53.0050  155.3630   26.7920 C   0  0  0  0  0  0  0  0  0  0  0  0
   52.3830  156.3930   27.5230 C   0  0  0  0  0  0  0  0  0  0  0  0
   51.6800  156.1340   28.7090 C   0  0  0  0  0  0  0  0  0  0  0  0
   51.0590  157.2490   29.4560 C   0  0  0  0  0  0  0  0  0  0  0  0
   51.9450  158.2920   29.7050 O   0  0  0  0  0  0  0  0  0  0  0  0
   51.4980  159.3920   30.3900 C   0  0  0  0  0  0  0  0  0  0  0  0
   52.4250  160.4090   30.6310 C   0  0  0  0  0  0  0  0  0  0  0  0
   52.0340  161.5560   31.3220 C   0  0  0  0  0  0  0  0  0  0  0  0
   50.7190  161.6910   31.7720 C   0  0  0  0  0  0  0  0  0  0  0  0
   49.7960  160.6770   31.5300 C   0  0  0  0  0  0  0  0  0  0  0  0
   48.5250  160.8730   31.9970 O   0  0  0  0  0  0  0  0  0  0  0  0
   50.1870  159.5260   30.8390 C   0  0  0  0  0  0  0  0  0  0  0  0
   49.2500  158.4360   30.5640 C   0  0  0  0  0  0  0  0  0  0  0  0
   48.0750  158.4820   30.9210 O   0  0  0  0  0  0  0  0  0  0  0  0
   49.7660  157.2560   29.8310 C   0  0  0  0  0  0  0  0  0  0  0  0
   48.8690  156.2390   29.5640 O   0  0  0  0  0  0  0  0  0  0  0  0
   51.6240  154.8170   29.1730 C   0  0  0  0  0  0  0  0  0  0  0  0
   52.2450  153.7840   28.4660 C   0  0  0  0  0  0  0  0  0  0  0  0
   52.9500  154.0420   27.2800 C   0  0  0  0  0  0  0  0  0  0  0  0
   53.5880  152.8920   26.5410 C   0  0  0  0  0  0  0  0  0  0  0  0
   52.6840  152.0680   25.9380 F   0  0  0  0  0  0  0  0  0  0  0  0
   54.7147  156.1636   25.7865 H   0  0  0  0  0  0  0  0  0  0  0  0
   53.9135  154.7967   24.9402 H   0  0  0  0  0  0  0  0  0  0  0  0
   53.1517  156.4235   24.9402 H   0  0  0  0  0  0  0  0  0  0  0  0
   52.4500  157.4274   27.1547 H   0  0  0  0  0  0  0  0  0  0  0  0
   53.4612  160.3055   30.2766 H   0  0  0  0  0  0  0  0  0  0  0  0
   52.7638  162.3566   31.5130 H   0  0  0  0  0  0  0  0  0  0  0  0
   50.4130  162.5965   32.3165 H   0  0  0  0  0  0  0  0  0  0  0  0
   47.7900  160.6740   31.4520 H   0  0  0  0  0  0  0  0  0  0  0  0
   49.1790  155.3670   29.4190 H   0  0  0  0  0  0  0  0  0  0  0  0
   51.0852  154.5911   30.1050 H   0  0  0  0  0  0  0  0  0  0  0  0
   52.1804  152.7532   28.8445 H   0  0  0  0  0  0  0  0  0  0  0  0
   54.2561  153.3013   25.7689 H   0  0  0  0  0  0  0  0  0  0  0  0
   54.1314  152.2898   27.2840 H   0  0  0  0  0  0  0  0  0  0  0  0
  1  2  1  0
  2  3  2  0
  3  4  1  0
  4  5  1  0
  5  6  1  0
  6  7  1  0
  7  8  2  0
  8  9  1  0
  9 10  2  0
 10 11  1  0
 11 12  1  0
 11 13  2  0
 13 14  1  0
 14 15  2  0
 14 16  1  0
 16 17  1  0
  4 18  2  0
 18 19  1  0
 19 20  2  0
 20 21  1  0
 21 22  1  0
 20  2  1  0
 16  5  2  0
 13  7  1  0
  1 23  1  0
  1 24  1  0
  1 25  1  0
  3 26  1  0
  8 27  1  0
  9 28  1  0
 10 29  1  0
 12 30  1  0
 17 31  1  0
 18 32  1  0
 19 33  1  0
 21 34  1  0
 21 35  1  0
M  END
>  <meeko>  (4) 
{"is_sidechain": [false], "free_energy": -8.942, "intermolecular_energy": -10.476, "internal_energy": -0.227}

$$$$
cand_037_out
     RDKit          3D

 35 37  0  0  0  0  0  0  0  0999 V2000
   51.8880  159.3670   30.0370 C   0  0  0  0  0  0  0  0  0  0  0  0
   51.3090  158.0280   29.6680 C   0  0  0  0  0  0  0  0  0  0  0  0
   52.0050  157.2120   28.7580 C   0  0  0  0  0  0  0  0  0  0  0  0
   51.5160  155.9560   28.3720 C   0  0  0  0  0  0  0  0  0  0  0  0
   52.2690  155.1390   27.3970 C   0  0  0  0  0  0  0  0  0  0  0  0
   51.9590  153.7860   27.4710 O   0  0  0  0  0  0  0  0  0  0  0  0
   52.5860  152.9130   26.6200 C   0  0  0  0  0  0  0  0  0  0  0  0
   52.2550  151.5620   26.7390 C   0  0  0  0  0  0  0  0  0  0  0  0
   52.8570  150.6210   25.9010 C   0  0  0  0  0  0  0  0  0  0  0  0
   53.7890  151.0290   24.9450 C   0  0  0  0  0  0  0  0  0  0  0  0
   54.1170  152.3770   24.8260 C   0  0  0  0  0  0  0  0  0  0  0  0
   55.0360  152.7080   23.8690 O   0  0  0  0  0  0  0  0  0  0  0  0
   53.5150  153.3190   25.6660 C   0  0  0  0  0  0  0  0  0  0  0  0
   53.8320  154.7450   25.5760 C   0  0  0  0  0  0  0  0  0  0  0  0
   54.6350  155.1830   24.7560 O   0  0  0  0  0  0  0  0  0  0  0  0
   53.1450  155.6610   26.5170 C   0  0  0  0  0  0  0  0  0  0  0  0
   53.4410  157.0070   26.4140 O   0  0  0  0  0  0  0  0  0  0  0  0
   50.2920  155.5290   28.8980 C   0  0  0  0  0  0  0  0  0  0  0  0
   49.5830  156.3330   29.7950 C   0  0  0  0  0  0  0  0  0  0  0  0
   50.0720  157.5910   30.1810 C   0  0  0  0  0  0  0  0  0  0  0  0
   49.2800  158.4140   31.1660 C   0  0  0  0  0  0  0  0  0  0  0  0
   48.0150  158.6960   30.7430 F   0  0  0  0  0  0  0  0  0  0  0  0
   51.9281  159.4598   31.1323 H   0  0  0  0  0  0  0  0  0  0  0  0
   52.9039  159.4535   29.6242 H   0  0  0  0  0  0  0  0  0  0  0  0
   51.2552  160.1665   29.6242 H   0  0  0  0  0  0  0  0  0  0  0  0
   52.9573  157.5684   28.3384 H   0  0  0  0  0  0  0  0  0  0  0  0
   51.5209  151.2391   27.4919 H   0  0  0  0  0  0  0  0  0  0  0  0
   52.5964  149.5564   25.9943 H   0  0  0  0  0  0  0  0  0  0  0  0
   54.2636  150.2865   24.2866 H   0  0  0  0  0  0  0  0  0  0  0  0
   54.7660  152.8150   22.9780 H   0  0  0  0  0  0  0  0  0  0  0  0
   52.9180  157.5610   25.8680 H   0  0  0  0  0  0  0  0  0  0  0  0
   49.8837  154.5512   28.6028 H   0  0  0  0  0  0  0  0  0  0  0  0
   48.6272  155.9745   30.2048 H   0  0  0  0  0  0  0  0  0  0  0  0
   49.2151  157.8574   32.1126 H   0  0  0  0  0  0  0  0  0  0  0  0
   49.8046  159.3738   31.2828 H   0  0  0  0  0  0  0  0  0  0  0  0
  1  2  1  0
  2  3  2  0
  3  4  1  0
  4  5  1  0
  5  6  1  0
  6  7  1  0
  7  8  2  0
  8  9  1  0
  9 10  2  0
 10 11  1  0
 11 12  1  0
 11 13  2  0
 13 14  1  0
 14 15  2  0
 14 16  1  0
 16 17  1  0
  4 18  2  0
 18 19  1  0
 19 20  2  0
 20 21  1  0
 21 22  1  0
 20  2  1  0
 16  5  2  0
 13  7  1  0
  1 23  1  0
  1 24  1  0
  1 25  1  0
  3 26  1  0
  8 27  1  0
  9 28  1  0
 10 29  1  0
 12 30  1  0
 17 31  1  0
 18 32  1  0
 19 33  1  0
 21 34  1  0
 21 35  1  0
M  END
>  <meeko>  (5) 
{"is_sidechain": [false], "free_energy": -8.623, "intermolecular_energy": -10.511, "internal_energy": 0.183}

$$$$
cand_037_out
     RDKit          3D

 35 37  0  0  0  0  0  0  0  0999 V2000
   49.3160  156.6870   30.1940 C   0  0  0  0  0  0  0  0  0  0  0  0
   50.6190  156.8710   29.4660 C   0  0  0  0  0  0  0  0  0  0  0  0
   51.0660  155.8560   28.6010 C   0  0  0  0  0  0  0  0  0  0  0  0
   52.2740  155.9670   27.8960 C   0  0  0  0  0  0  0  0  0  0  0  0
   52.7160  154.8670   27.0130 C   0  0  0  0  0  0  0  0  0  0  0  0
   52.2210  153.6280   27.4030 O   0  0  0  0  0  0  0  0  0  0  0  0
   52.5530  152.5190   26.6680 C   0  0  0  0  0  0  0  0  0  0  0  0
   52.0450  151.2940   27.1050 C   0  0  0  0  0  0  0  0  0  0  0  0
   52.3440  150.1260   26.4010 C   0  0  0  0  0  0  0  0  0  0  0  0
   53.1500  150.1810   25.2610 C   0  0  0  0  0  0  0  0  0  0  0  0
   53.6550  151.4040   24.8270 C   0  0  0  0  0  0  0  0  0  0  0  0
   54.4360  151.3870   23.7050 O   0  0  0  0  0  0  0  0  0  0  0  0
   53.3560  152.5740   25.5330 C   0  0  0  0  0  0  0  0  0  0  0  0
   53.8670  153.8790   25.1120 C   0  0  0  0  0  0  0  0  0  0  0  0
   54.5750  154.0110   24.1170 O   0  0  0  0  0  0  0  0  0  0  0  0
   53.4980  155.0560   25.9330 C   0  0  0  0  0  0  0  0  0  0  0  0
   53.9740  156.2860   25.5180 O   0  0  0  0  0  0  0  0  0  0  0  0
   53.0520  157.1130   28.0880 C   0  0  0  0  0  0  0  0  0  0  0  0
   52.6280  158.1270   28.9530 C   0  0  0  0  0  0  0  0  0  0  0  0
   51.4190  158.0150   29.6580 C   0  0  0  0  0  0  0  0  0  0  0  0
   50.9940  159.1430   30.5650 C   0  0  0  0  0  0  0  0  0  0  0  0
   50.5410  160.2380   29.8920 F   0  0  0  0  0  0  0  0  0  0  0  0
   49.4954  156.7123   31.2790 H   0  0  0  0  0  0  0  0  0  0  0  0
   48.6242  157.4964   29.9178 H   0  0  0  0  0  0  0  0  0  0  0  0
   48.8753  155.7177   29.9178 H   0  0  0  0  0  0  0  0  0  0  0  0
   50.4526  154.9518   28.4739 H   0  0  0  0  0  0  0  0  0  0  0  0
   51.4103  151.2493   28.0023 H   0  0  0  0  0  0  0  0  0  0  0  0
   51.9442  149.1605   26.7445 H   0  0  0  0  0  0  0  0  0  0  0  0
   53.3852  149.2600   24.7074 H   0  0  0  0  0  0  0  0  0  0  0  0
   54.9840  150.6480   23.5260 H   0  0  0  0  0  0  0  0  0  0  0  0
   53.8370  157.0450   26.0510 H   0  0  0  0  0  0  0  0  0  0  0  0
   54.0074  157.2181   27.5531 H   0  0  0  0  0  0  0  0  0  0  0  0
   53.2504  159.0247   29.0828 H   0  0  0  0  0  0  0  0  0  0  0  0
   50.1890  158.7789   31.2203 H   0  0  0  0  0  0  0  0  0  0  0  0
   51.8830  159.4557   31.1323 H   0  0  0  0  0  0  0  0  0  0  0  0
  1  2  1  0
  2  3  2  0
  3  4  1  0
  4  5  1  0
  5  6  1  0
  6  7  1  0
  7  8  2  0
  8  9  1  0
  9 10  2  0
 10 11  1  0
 11 12  1  0
 11 13  2  0
 13 14  1  0
 14 15  2  0
 14 16  1  0
 16 17  1  0
  4 18  2  0
 18 19  1  0
 19 20  2  0
 20 21  1  0
 21 22  1  0
 20  2  1  0
 16  5  2  0
 13  7  1  0
  1 23  1  0
  1 24  1  0
  1 25  1  0
  3 26  1  0
  8 27  1  0
  9 28  1  0
 10 29  1  0
 12 30  1  0
 17 31  1  0
 18 32  1  0
 19 33  1  0
 21 34  1  0
 21 35  1  0
M  END
>  <meeko>  (6) 
{"is_sidechain": [false], "free_energy": -7.609, "intermolecular_energy": -9.177, "internal_energy": 0.041}

$$$$
