cand_035_out
     RDKit          3D

 36 38  0  0  0  0  0  0  0  0999 V2000
   47.3770  159.5850   30.9870 C   0  0  0  0  0  0  0  0  0  0  0  0
   48.3920  158.8470   31.4500 C   0  0  0  0  0  0  0  0  0  0  0  0
   49.7300  158.9090   30.8520 C   0  0  0  0  0  0  0  0  0  0  0  0
   50.1780  157.7890   30.1310 C   0  0  0  0  0  0  0  0  0  0  0  0
   51.4450  157.7690   29.5280 C   0  0  0  0  0  0  0  0  0  0  0  0
   51.8940  156.5640   28.8010 C   0  0  0  0  0  0  0  0  0  0  0  0
   52.4780  156.8600   27.5740 O   0  0  0  0  0  0  0  0  0  0  0  0
   52.9400  155.8320   26.7940 C   0  0  0  0  0  0  0  0  0  0  0  0
   53.5070  156.1730   25.5650 C   0  0  0  0  0  0  0  0  0  0  0  0
   53.9990  155.1740   24.7230 C   0  0  0  0  0  0  0  0  0  0  0  0
   53.9240  153.8340   25.1090 C   0  0  0  0  0  0  0  0  0  0  0  0
   53.3580  153.4960   26.3360 C   0  0  0  0  0  0  0  0  0  0  0  0
   53.3180  152.1650   26.6510 O   0  0  0  0  0  0  0  0  0  0  0  0
   52.8660  154.4960   27.1780 C   0  0  0  0  0  0  0  0  0  0  0  0
   52.2640  154.1830   28.4750 C   0  0  0  0  0  0  0  0  0  0  0  0
   52.1690  153.0300   28.8880 O   0  0  0  0  0  0  0  0  0  0  0  0
   51.7660  155.3170   29.2890 C   0  0  0  0  0  0  0  0  0  0  0  0
   51.2130  155.0130   30.5190 O   0  0  0  0  0  0  0  0  0  0  0  0
   52.2690  158.8900   29.6750 C   0  0  0  0  0  0  0  0  0  0  0  0
   51.8330  160.0090   30.3910 C   0  0  0  0  0  0  0  0  0  0  0  0
   50.5620  160.0340   30.9840 C   0  0  0  0  0  0  0  0  0  0  0  0
   50.1220  161.2560   31.7500 C   0  0  0  0  0  0  0  0  0  0  0  0
   50.1520  161.0880   33.1050 F   0  0  0  0  0  0  0  0  0  0  0  0
   46.3858  159.5145   31.4587 H   0  0  0  0  0  0  0  0  0  0  0  0
   47.5335  160.2624   30.1346 H   0  0  0  0  0  0  0  0  0  0  0  0
   48.2184  158.1747   32.3032 H   0  0  0  0  0  0  0  0  0  0  0  0
   49.5225  156.9106   30.0375 H   0  0  0  0  0  0  0  0  0  0  0  0
   53.5662  157.2282   25.2601 H   0  0  0  0  0  0  0  0  0  0  0  0
   54.4462  155.4426   23.7546 H   0  0  0  0  0  0  0  0  0  0  0  0
   54.3112  153.0469   24.4453 H   0  0  0  0  0  0  0  0  0  0  0  0
   53.0720  151.5360   26.0020 H   0  0  0  0  0  0  0  0  0  0  0  0
   50.6540  155.6320   30.9470 H   0  0  0  0  0  0  0  0  0  0  0  0
   53.2714  158.8911   29.2221 H   0  0  0  0  0  0  0  0  0  0  0  0
   52.4955  160.8814   30.4906 H   0  0  0  0  0  0  0  0  0  0  0  0
   50.7888  162.0906   31.4875 H   0  0  0  0  0  0  0  0  0  0  0  0
   49.0767  161.4545   31.4710 H   0  0  0  0  0  0  0  0  0  0  0  0
  1  2  2  0
  2  3  1  0
  3  4  2  0
  4  5  1  0
  5  6  1  0
  6  7  1  0
  7  8  1  0
  8  9  2  0
  9 10  1  0
 10 11  2  0
 11 12  1  0
 12 13  1  0
 12 14  2  0
 14 15  1  0
 15 16  2  0
 15 17  1  0
 17 18  1  0
  5 19  2  0
 19 20  1  0
 20 21  2  0
 21 22  1  0
 22 23  1  0
 21  3  1  0
 17  6  2  0
 14  8  1  0
  1 24  1  0
  1 25  1  0
  2 26  1  0
  4 27  1  0
  9 28  1  0
 10 29  1  0
 11 30  1  0
 13 31  1  0
 18 32  1  0
 19 33  1  0
 20 34  1  0
 22 35  1  0
 22 36  1  0
M  END
>  <meeko>  (1) 
{"is_sidechain": [false], "free_energy": -11.201, "intermolecular_energy": -13.82, "internal_energy": -0.057}

$$$$
cand_035_out
     RDKit          3D

 36 38  0  0  0  0  0  0  0  0999 V2000
   54.0560  156.2960   25.1340 C   0  0  0  0  0  0  0  0  0  0  0  0
   53.2200  155.2990   25.4460 C   0  0  0  0  0  0  0  0  0  0  0  0
   52.6580  155.1520   26.7920 C   0  0  0  0  0  0  0  0  0  0  0  0
   52.2760  156.3190   27.4740 C   0  0  0  0  0  0  0  0  0  0  0  0
   51.7300  156.2640   28.7650 C   0  0  0  0  0  0  0  0  0  0  0  0
   51.3640  157.5140   29.4630 C   0  0  0  0  0  0  0  0  0  0  0  0
   50.0490  157.5150   29.9160 O   0  0  0  0  0  0  0  0  0  0  0  0
   49.5780  158.6170   30.5820 C   0  0  0  0  0  0  0  0  0  0  0  0
   48.2490  158.5810   31.0070 C   0  0  0  0  0  0  0  0  0  0  0  0
   47.7080  159.6700   31.6930 C   0  0  0  0  0  0  0  0  0  0  0  0
   48.4940  160.7940   31.9550 C   0  0  0  0  0  0  0  0  0  0  0  0
   49.8200  160.8270   31.5300 C   0  0  0  0  0  0  0  0  0  0  0  0
   50.5330  161.9580   31.8210 O   0  0  0  0  0  0  0  0  0  0  0  0
   50.3620  159.7370   30.8430 C   0  0  0  0  0  0  0  0  0  0  0  0
   51.7500  159.7320   30.3800 C   0  0  0  0  0  0  0  0  0  0  0  0
   52.5070  160.6790   30.5790 O   0  0  0  0  0  0  0  0  0  0  0  0
   52.2250  158.5300   29.6550 C   0  0  0  0  0  0  0  0  0  0  0  0
   53.5410  158.5280   29.2340 O   0  0  0  0  0  0  0  0  0  0  0  0
   51.5870  155.0120   29.3730 C   0  0  0  0  0  0  0  0  0  0  0  0
   51.9640  153.8450   28.7040 C   0  0  0  0  0  0  0  0  0  0  0  0
   52.5000  153.8980   27.4080 C   0  0  0  0  0  0  0  0  0  0  0  0
   52.8980  152.6200   26.7140 C   0  0  0  0  0  0  0  0  0  0  0  0
   54.2500  152.4460   26.6310 F   0  0  0  0  0  0  0  0  0  0  0  0
   54.4594  156.3766   24.1138 H   0  0  0  0  0  0  0  0  0  0  0  0
   54.3399  157.0350   25.8977 H   0  0  0  0  0  0  0  0  0  0  0  0
   52.9465  154.5686   24.6702 H   0  0  0  0  0  0  0  0  0  0  0  0
   52.4077  157.2959   26.9858 H   0  0  0  0  0  0  0  0  0  0  0  0
   47.6288  157.6960   30.8018 H   0  0  0  0  0  0  0  0  0  0  0  0
   46.6605  159.6425   32.0278 H   0  0  0  0  0  0  0  0  0  0  0  0
   48.0669  161.6514   32.4958 H   0  0  0  0  0  0  0  0  0  0  0  0
   51.4530  161.9010   31.9930 H   0  0  0  0  0  0  0  0  0  0  0  0
   54.2110  158.8790   29.7880 H   0  0  0  0  0  0  0  0  0  0  0  0
   51.1728  154.9458   30.3899 H   0  0  0  0  0  0  0  0  0  0  0  0
   51.8390  152.8711   29.1999 H   0  0  0  0  0  0  0  0  0  0  0  0
   52.4711  151.7731   27.2712 H   0  0  0  0  0  0  0  0  0  0  0  0
   52.5142  152.6764   25.6847 H   0  0  0  0  0  0  0  0  0  0  0  0
  1  2  2  0
  2  3  1  0
  3  4  2  0
  4  5  1  0
  5  6  1  0
  6  7  1  0
  7  8  1  0
  8  9  2  0
  9 10  1  0
 10 11  2  0
 11 12  1  0
 12 13  1  0
 12 14  2  0
 14 15  1  0
 15 16  2  0
 15 17  1  0
 17 18  1  0
  5 19  2  0
 19 20  1  0
 20 21  2  0
 21 22  1  0
 22 23  1  0
 21  3  1  0
 17  6  2  0
 14  8  1  0
  1 24  1  0
  1 25  1  0
  2 26  1  0
  4 27  1  0
  9 28  1  0
 10 29  1  0
 11 30  1  0
 13 31  1  0
 18 32  1  0
 19 33  1  0
 20 34  1  0
 22 35  1  0
 22 36  1  0
M  END
>  <meeko>  (2) 
{"is_sidechain": [false], "free_energy": -10.751, "intermolecular_energy": -12.965, "internal_energy": -0.357}

$$$$
cand_035_out
     RDKit          3D

 36 38  0  0  0  0  0  0  0  0999 V2000
   51.5300  161.4790   31.8540 C   0  0  0  0  0  0  0  0  0  0  0  0
   51.5440  160.8600   30.6680 C   0  0  0  0  0  0  0  0  0  0  0  0
   50.8300  159.5990   30.4440 C   0  0  0  0  0  0  0  0  0  0  0  0
   51.5130  158.5690   29.7740 C   0  0  0  0  0  0  0  0  0  0  0  0
   50.9000  157.3330   29.5210 C   0  0  0  0  0  0  0  0  0  0  0  0
   51.6380  156.2820   28.7890 C   0  0  0  0  0  0  0  0  0  0  0  0
   52.1790  156.7370   27.5910 O   0  0  0  0  0  0  0  0  0  0  0  0
   52.8910  155.8630   26.8110 C   0  0  0  0  0  0  0  0  0  0  0  0
   53.4040  156.3580   25.6110 C   0  0  0  0  0  0  0  0  0  0  0  0
   54.1400  155.5200   24.7700 C   0  0  0  0  0  0  0  0  0  0  0  0
   54.3640  154.1890   25.1290 C   0  0  0  0  0  0  0  0  0  0  0  0
   53.8500  153.6980   26.3270 C   0  0  0  0  0  0  0  0  0  0  0  0
   54.1080  152.3860   26.6170 O   0  0  0  0  0  0  0  0  0  0  0  0
   53.1130  154.5370   27.1680 C   0  0  0  0  0  0  0  0  0  0  0  0
   52.5570  154.0600   28.4350 C   0  0  0  0  0  0  0  0  0  0  0  0
   52.7170  152.9050   28.8240 O   0  0  0  0  0  0  0  0  0  0  0  0
   51.7850  155.0270   29.2500 C   0  0  0  0  0  0  0  0  0  0  0  0
   51.2760  154.5720   30.4520 O   0  0  0  0  0  0  0  0  0  0  0  0
   49.5780  157.1480   29.9390 C   0  0  0  0  0  0  0  0  0  0  0  0
   48.8900  158.1660   30.6060 C   0  0  0  0  0  0  0  0  0  0  0  0
   49.5050  159.3990   30.8690 C   0  0  0  0  0  0  0  0  0  0  0  0
   48.7360  160.4760   31.5900 C   0  0  0  0  0  0  0  0  0  0  0  0
   48.2560  161.4490   30.7600 F   0  0  0  0  0  0  0  0  0  0  0  0
   52.0767  162.4241   31.9876 H   0  0  0  0  0  0  0  0  0  0  0  0
   50.9717  161.0428   32.6955 H   0  0  0  0  0  0  0  0  0  0  0  0
   52.1073  161.3099   29.8371 H   0  0  0  0  0  0  0  0  0  0  0  0
   52.5483  158.7356   29.4417 H   0  0  0  0  0  0  0  0  0  0  0  0
   53.2290  157.4065   25.3280 H   0  0  0  0  0  0  0  0  0  0  0  0
   54.5438  155.9090   23.8236 H   0  0  0  0  0  0  0  0  0  0  0  0
   54.9450  153.5299   24.4672 H   0  0  0  0  0  0  0  0  0  0  0  0
   53.4150  151.8250   26.9080 H   0  0  0  0  0  0  0  0  0  0  0  0
   51.6520  154.8640   31.2600 H   0  0  0  0  0  0  0  0  0  0  0  0
   49.0740  156.1906   29.7406 H   0  0  0  0  0  0  0  0  0  0  0  0
   47.8520  157.9978   30.9290 H   0  0  0  0  0  0  0  0  0  0  0  0
   47.8854  160.0093   32.1084 H   0  0  0  0  0  0  0  0  0  0  0  0
   49.4340  160.9607   32.2885 H   0  0  0  0  0  0  0  0  0  0  0  0
  1  2  2  0
  2  3  1  0
  3  4  2  0
  4  5  1  0
  5  6  1  0
  6  7  1  0
  7  8  1  0
  8  9  2  0
  9 10  1  0
 10 11  2  0
 11 12  1  0
 12 13  1  0
 12 14  2  0
 14 15  1  0
 15 16  2  0
 15 17  1  0
 17 18  1  0
  5 19  2  0
 19 20  1  0
 20 21  2  0
 21 22  1  0
 22 23  1  0
 21  3  1  0
 17  6  2  0
 14  8  1  0
  1 24  1  0
  1 25  1  0
  2 26  1  0
  4 27  1  0
  9 28  1  0
 10 29  1  0
 11 30  1  0
 13 31  1  0
 18 32  1  0
 19 33  1  0
 20 34  1  0
 22 35  1  0
 22 36  1  0
M  END
>  <meeko>  (3) 
{"is_sidechain": [false], "free_energy": -10.392, "intermolecular_energy": -13.032, "internal_energy": 0.153}

$$$$
cand_035_out
     RDKit          3D

 36 38  0  0  0  0  0  0  0  0999 V2000
   51.6200  152.4650   28.0940 C   0  0  0  0  0  0  0  0  0  0  0  0
   51.9800  153.4530   28.9220 C   0  0  0  0  0  0  0  0  0  0  0  0
   52.1950  154.8230   28.4460 C   0  0  0  0  0  0  0  0  0  0  0  0
   51.7080  155.8760   29.2380 C   0  0  0  0  0  0  0  0  0  0  0  0
   51.8730  157.2150   28.8520 C   0  0  0  0  0  0  0  0  0  0  0  0
   51.3240  158.2970   29.6970 C   0  0  0  0  0  0  0  0  0  0  0  0
   49.9890  158.0960   30.0310 O   0  0  0  0  0  0  0  0  0  0  0  0
   49.3540  159.0260   30.8120 C   0  0  0  0  0  0  0  0  0  0  0  0
   48.0110  158.7930   31.1120 C   0  0  0  0  0  0  0  0  0  0  0  0
   47.3060  159.7000   31.9060 C   0  0  0  0  0  0  0  0  0  0  0  0
   47.9440  160.8410   32.3990 C   0  0  0  0  0  0  0  0  0  0  0  0
   49.2840  161.0720   32.0980 C   0  0  0  0  0  0  0  0  0  0  0  0
   49.8460  162.2070   32.6150 O   0  0  0  0  0  0  0  0  0  0  0  0
   49.9890  160.1630   31.3040 C   0  0  0  0  0  0  0  0  0  0  0  0
   51.3980  160.3690   30.9660 C   0  0  0  0  0  0  0  0  0  0  0  0
   52.0300  161.3430   31.3680 O   0  0  0  0  0  0  0  0  0  0  0  0
   52.0520  159.3500   30.1110 C   0  0  0  0  0  0  0  0  0  0  0  0
   53.3860  159.5440   29.8090 O   0  0  0  0  0  0  0  0  0  0  0  0
   52.5240  157.4830   27.6430 C   0  0  0  0  0  0  0  0  0  0  0  0
   53.0120  156.4430   26.8480 C   0  0  0  0  0  0  0  0  0  0  0  0
   52.8570  155.1040   27.2380 C   0  0  0  0  0  0  0  0  0  0  0  0
   53.3940  154.0050   26.3570 C   0  0  0  0  0  0  0  0  0  0  0  0
   52.6500  153.8000   25.2300 F   0  0  0  0  0  0  0  0  0  0  0  0
   51.4670  151.4482   28.4848 H   0  0  0  0  0  0  0  0  0  0  0  0
   51.4771  152.6698   27.0227 H   0  0  0  0  0  0  0  0  0  0  0  0
   52.1186  153.2308   29.9904 H   0  0  0  0  0  0  0  0  0  0  0  0
   51.1871  155.6465   30.1792 H   0  0  0  0  0  0  0  0  0  0  0  0
   47.5081  157.8953   30.7232 H   0  0  0  0  0  0  0  0  0  0  0  0
   46.2478  159.5160   32.1434 H   0  0  0  0  0  0  0  0  0  0  0  0
   47.3887  161.5559   33.0240 H   0  0  0  0  0  0  0  0  0  0  0  0
   49.4610  162.6230   33.3620 H   0  0  0  0  0  0  0  0  0  0  0  0
   53.8730  160.2170   30.2440 H   0  0  0  0  0  0  0  0  0  0  0  0
   52.6531  158.5248   27.3145 H   0  0  0  0  0  0  0  0  0  0  0  0
   53.5248  156.6770   25.9034 H   0  0  0  0  0  0  0  0  0  0  0  0
   54.4182  154.2693   26.0552 H   0  0  0  0  0  0  0  0  0  0  0  0
   53.3597  153.0742   26.9421 H   0  0  0  0  0  0  0  0  0  0  0  0
  1  2  2  0
  2  3  1  0
  3  4  2  0
  4  5  1  0
  5  6  1  0
  6  7  1  0
  7  8  1  0
  8  9  2  0
  9 10  1  0
 10 11  2  0
 11 12  1  0
 12 13  1  0
 12 14  2  0
 14 15  1  0
 15 16  2  0
 15 17  1  0
 17 18  1  0
  5 19  2  0
 19 20  1  0
 20 21  2  0
 21 22  1  0
 22 23  1  0
 21  3  1  0
 17  6  2  0
 14  8  1  0
  1 24  1  0
  1 25  1  0
  2 26  1  0
  4 27  1  0
  9 28  1  0
 10 29  1  0
 11 30  1  0
 13 31  1  0
 18 32  1  0
 19 33  1  0
 20 34  1  0
 22 35  1  0
 22 36  1  0
M  END
>  <meeko>  (4) 
{"is_sidechain": [false], "free_energy": -9.331, "intermolecular_energy": -11.835, "internal_energy": 0.265}

$$$$
cand_035_out
     RDKit          3D

 36 38  0  0  0  0  0  0  0  0999 V2000
   54.1650  156.6210   25.1870 C   0  0  0  0  0  0  0  0  0  0  0  0
   53.5970  155.4280   25.3970 C   0  0  0  0  0  0  0  0  0  0  0  0
   52.9590  155.0880   26.6730 C   0  0  0  0  0  0  0  0  0  0  0  0
   52.3020  156.1150   27.3720 C   0  0  0  0  0  0  0  0  0  0  0  0
   51.6680  155.8720   28.6000 C   0  0  0  0  0  0  0  0  0  0  0  0
   51.0100  156.9820   29.3200 C   0  0  0  0  0  0  0  0  0  0  0  0
   51.8690  158.0440   29.5760 O   0  0  0  0  0  0  0  0  0  0  0  0
   51.3870  159.1430   30.2400 C   0  0  0  0  0  0  0  0  0  0  0  0
   52.2870  160.1800   30.4870 C   0  0  0  0  0  0  0  0  0  0  0  0
   51.8590  161.3280   31.1580 C   0  0  0  0  0  0  0  0  0  0  0  0
   50.5330  161.4390   31.5800 C   0  0  0  0  0  0  0  0  0  0  0  0
   49.6370  160.4020   31.3320 C   0  0  0  0  0  0  0  0  0  0  0  0
   48.3530  160.5780   31.7720 O   0  0  0  0  0  0  0  0  0  0  0  0
   50.0650  159.2530   30.6610 C   0  0  0  0  0  0  0  0  0  0  0  0
   49.1550  158.1420   30.3800 C   0  0  0  0  0  0  0  0  0  0  0  0
   47.9730  158.1680   30.7130 O   0  0  0  0  0  0  0  0  0  0  0  0
   49.7100  156.9670   29.6700 C   0  0  0  0  0  0  0  0  0  0  0  0
   48.8410  155.9280   29.3960 O   0  0  0  0  0  0  0  0  0  0  0  0
   51.7160  154.5770   29.1280 C   0  0  0  0  0  0  0  0  0  0  0  0
   52.3670  153.5490   28.4400 C   0  0  0  0  0  0  0  0  0  0  0  0
   52.9930  153.7890   27.2080 C   0  0  0  0  0  0  0  0  0  0  0  0
   53.6880  152.6580   26.4930 C   0  0  0  0  0  0  0  0  0  0  0  0
   52.9830  152.1750   25.4270 F   0  0  0  0  0  0  0  0  0  0  0  0
   54.6350  156.8434   24.2177 H   0  0  0  0  0  0  0  0  0  0  0  0
   54.1620  157.3795   25.9837 H   0  0  0  0  0  0  0  0  0  0  0  0
   53.6089  154.6809   24.5897 H   0  0  0  0  0  0  0  0  0  0  0  0
   52.2844  157.1298   26.9479 H   0  0  0  0  0  0  0  0  0  0  0  0
   53.3318  160.0938   30.1540 H   0  0  0  0  0  0  0  0  0  0  0  0
   52.5680  162.1458   31.3542 H   0  0  0  0  0  0  0  0  0  0  0  0
   50.1964  162.3438   32.1074 H   0  0  0  0  0  0  0  0  0  0  0  0
   47.7500  159.8600   31.7570 H   0  0  0  0  0  0  0  0  0  0  0  0
   48.9490  155.4190   28.6160 H   0  0  0  0  0  0  0  0  0  0  0  0
   51.2362  154.3657   30.0950 H   0  0  0  0  0  0  0  0  0  0  0  0
   52.3887  152.5372   28.8710 H   0  0  0  0  0  0  0  0  0  0  0  0
   54.6619  153.0201   26.1317 H   0  0  0  0  0  0  0  0  0  0  0  0
   53.7921  151.8336   27.2137 H   0  0  0  0  0  0  0  0  0  0  0  0
  1  2  2  0
  2  3  1  0
  3  4  2  0
  4  5  1  0
  5  6  1  0
  6  7  1  0
  7  8  1  0
  8  9  2  0
  9 10  1  0
 10 11  2  0
 11 12  1  0
 12 13  1  0
 12 14  2  0
 14 15  1  0
 15 16  2  0
 15 17  1  0
 17 18  1  0
  5 19  2  0
 19 20  1  0
 20 21  2  0
 21 22  1  0
 22 23  1  0
 21  3  1  0
 17  6  2  0
 14  8  1  0
  1 24  1  0
  1 25  1  0
  2 26  1  0
  4 27  1  0
  9 28  1  0
 10 29  1  0
 11 30  1  0
 13 31  1  0
 18 32  1  0
 19 33  1  0
 20 34  1  0
 22 35  1  0
 22 36  1  0
M  END
>  <meeko>  (5) 
{"is_sidechain": [false], "free_energy": -9.007, "intermolecular_energy": -10.736, "internal_energy": -0.434}

$$$$
