cand_040_out
     RDKit          3D

 36 38  0  0  0  0  0  0  0  0999 V2000
   50.0160  161.2950   32.9470 C   0  0  0  0  0  0  0  0  0  0  0  0
   49.9550  161.1800   31.6140 C   0  0  0  0  0  0  0  0  0  0  0  0
   50.3950  159.9830   30.8830 C   0  0  0  0  0  0  0  0  0  0  0  0
   51.7020  159.9190   30.3810 C   0  0  0  0  0  0  0  0  0  0  0  0
   52.1620  158.7810   29.7120 C   0  0  0  0  0  0  0  0  0  0  0  0
   51.3300  157.6700   29.5390 C   0  0  0  0  0  0  0  0  0  0  0  0
   51.8270  156.4850   28.8080 C   0  0  0  0  0  0  0  0  0  0  0  0
   52.4040  156.8080   27.5850 O   0  0  0  0  0  0  0  0  0  0  0  0
   52.9080  155.8020   26.8030 C   0  0  0  0  0  0  0  0  0  0  0  0
   53.4640  156.1710   25.5760 C   0  0  0  0  0  0  0  0  0  0  0  0
   53.9970  155.1950   24.7320 C   0  0  0  0  0  0  0  0  0  0  0  0
   53.9730  153.8500   25.1120 C   0  0  0  0  0  0  0  0  0  0  0  0
   53.4180  153.4860   26.3360 C   0  0  0  0  0  0  0  0  0  0  0  0
   53.4290  152.1540   26.6460 O   0  0  0  0  0  0  0  0  0  0  0  0
   52.8850  154.4630   27.1810 C   0  0  0  0  0  0  0  0  0  0  0  0
   52.2910  154.1230   28.4750 C   0  0  0  0  0  0  0  0  0  0  0  0
   52.2410  152.9640   28.8830 O   0  0  0  0  0  0  0  0  0  0  0  0
   51.7470  155.2310   29.2920 C   0  0  0  0  0  0  0  0  0  0  0  0
   51.2010  154.9010   30.5180 O   0  0  0  0  0  0  0  0  0  0  0  0
   50.0220  157.7320   30.0410 C   0  0  0  0  0  0  0  0  0  0  0  0
   49.5430  158.8740   30.7150 C   0  0  0  0  0  0  0  0  0  0  0  0
   48.1320  158.8690   31.2380 C   0  0  0  0  0  0  0  0  0  0  0  0
   49.6706  162.2179   33.4358 H   0  0  0  0  0  0  0  0  0  0  0  0
   50.4115  160.4665   33.5530 H   0  0  0  0  0  0  0  0  0  0  0  0
   49.5546  162.0258   31.0358 H   0  0  0  0  0  0  0  0  0  0  0  0
   52.3763  160.7776   30.5155 H   0  0  0  0  0  0  0  0  0  0  0  0
   53.1886  158.7590   29.3176 H   0  0  0  0  0  0  0  0  0  0  0  0
   53.4819  157.2289   25.2752 H   0  0  0  0  0  0  0  0  0  0  0  0
   54.4366  155.4849   23.7662 H   0  0  0  0  0  0  0  0  0  0  0  0
   54.3915  153.0812   24.4458 H   0  0  0  0  0  0  0  0  0  0  0  0
   52.6470  151.7360   26.9510 H   0  0  0  0  0  0  0  0  0  0  0  0
   51.1210  154.0010   30.7680 H   0  0  0  0  0  0  0  0  0  0  0  0
   49.3537  156.8689   29.9057 H   0  0  0  0  0  0  0  0  0  0  0  0
   48.1486  158.8691   32.3379 H   0  0  0  0  0  0  0  0  0  0  0  0
   47.6048  159.7653   30.8792 H   0  0  0  0  0  0  0  0  0  0  0  0
   47.6111  157.9690   30.8792 H   0  0  0  0  0  0  0  0  0  0  0  0
  1  2  2  0
  2  3  1  0
  3  4  2  0
  4  5  1  0
  5  6  2  0
  6  7  1  0
  7  8  1  0
  8  9  1  0
  9 10  2  0
 10 11  1  0
 11 12  2  0
 12 13  1  0
 13 14  1  0
 13 15  2  0
 15 16  1  0
 16 17  2  0
 16 18  1  0
 18 19  1  0
  6 20  1  0
 20 21  2  0
 21 22  1  0
 21  3  1  0
 18  7  2  0
 15  9  1  0
  1 23  1  0
  1 24  1  0
  2 25  1  0
  4 26  1  0
  5 27  1  0
 10 28  1  0
 11 29  1  0
 12 30  1  0
 14 31  1  0
 19 32  1  0
 20 33  1  0
 22 34  1  0
 22 35  1  0
 22 36  1  0
M  END
>  <meeko>  (1) 
{"is_sidechain": [false], "free_energy": -11.52, "intermolecular_energy": -13.54, "internal_energy": -0.176}

$$$$
cand_040_out
     RDKit          3D

 36 38  0  0  0  0  0  0  0  0999 V2000
   48.9160  160.7260   33.0360 C   0  0  0  0  0  0  0  0  0  0  0  0
   49.0470  160.6770   31.7050 C   0  0  0  0  0  0  0  0  0  0  0  0
   49.7460  159.5940   30.9980 C   0  0  0  0  0  0  0  0  0  0  0  0
   49.0760  158.3880   30.7440 C   0  0  0  0  0  0  0  0  0  0  0  0
   49.7010  157.3520   30.0440 C   0  0  0  0  0  0  0  0  0  0  0  0
   51.0080  157.4990   29.5670 C   0  0  0  0  0  0  0  0  0  0  0  0
   51.6600  156.3820   28.8500 C   0  0  0  0  0  0  0  0  0  0  0  0
   52.2240  156.7730   27.6410 O   0  0  0  0  0  0  0  0  0  0  0  0
   52.8620  155.8340   26.8720 C   0  0  0  0  0  0  0  0  0  0  0  0
   53.4000  156.2680   25.6590 C   0  0  0  0  0  0  0  0  0  0  0  0
   54.0650  155.3620   24.8290 C   0  0  0  0  0  0  0  0  0  0  0  0
   54.1910  154.0240   25.2120 C   0  0  0  0  0  0  0  0  0  0  0  0
   53.6530  153.5950   26.4220 C   0  0  0  0  0  0  0  0  0  0  0  0
   53.8140  152.2740   26.7350 O   0  0  0  0  0  0  0  0  0  0  0  0
   52.9880  154.5020   27.2520 C   0  0  0  0  0  0  0  0  0  0  0  0
   52.4080  154.0920   28.5320 C   0  0  0  0  0  0  0  0  0  0  0  0
   52.4850  152.9350   28.9410 O   0  0  0  0  0  0  0  0  0  0  0  0
   51.7160  155.1270   29.3340 C   0  0  0  0  0  0  0  0  0  0  0  0
   51.1840  154.7330   30.5470 O   0  0  0  0  0  0  0  0  0  0  0  0
   51.6790  158.7040   29.8210 C   0  0  0  0  0  0  0  0  0  0  0  0
   51.0630  159.7570   30.5280 C   0  0  0  0  0  0  0  0  0  0  0  0
   51.8360  161.0280   30.7550 C   0  0  0  0  0  0  0  0  0  0  0  0
   48.3808  161.5645   33.5055 H   0  0  0  0  0  0  0  0  0  0  0  0
   49.3436  159.9278   33.6605 H   0  0  0  0  0  0  0  0  0  0  0  0
   48.6083  161.4903   31.1083 H   0  0  0  0  0  0  0  0  0  0  0  0
   48.0439  158.2557   31.1008 H   0  0  0  0  0  0  0  0  0  0  0  0
   49.1595  156.4112   29.8663 H   0  0  0  0  0  0  0  0  0  0  0  0
   53.3005  157.3212   25.3574 H   0  0  0  0  0  0  0  0  0  0  0  0
   54.4898  155.7022   23.8731 H   0  0  0  0  0  0  0  0  0  0  0  0
   54.7145  153.3109   24.5583 H   0  0  0  0  0  0  0  0  0  0  0  0
   54.3190  151.7170   26.1740 H   0  0  0  0  0  0  0  0  0  0  0  0
   50.6890  153.9390   30.6050 H   0  0  0  0  0  0  0  0  0  0  0  0
   52.7104  158.8307   29.4601 H   0  0  0  0  0  0  0  0  0  0  0  0
   51.9431  161.2040   31.8355 H   0  0  0  0  0  0  0  0  0  0  0  0
   52.8324  160.9378   30.2977 H   0  0  0  0  0  0  0  0  0  0  0  0
   51.2976  161.8712   30.2977 H   0  0  0  0  0  0  0  0  0  0  0  0
  1  2  2  0
  2  3  1  0
  3  4  2  0
  4  5  1  0
  5  6  2  0
  6  7  1  0
  7  8  1  0
  8  9  1  0
  9 10  2  0
 10 11  1  0
 11 12  2  0
 12 13  1  0
 13 14  1  0
 13 15  2  0
 15 16  1  0
 16 17  2  0
 16 18  1  0
 18 19  1  0
  6 20  1  0
 20 21  2  0
 21 22  1  0
 21  3  1  0
 18  7  2  0
 15  9  1  0
  1 23  1  0
  1 24  1  0
  2 25  1  0
  4 26  1  0
  5 27  1  0
 10 28  1  0
 11 29  1  0
 12 30  1  0
 14 31  1  0
 19 32  1  0
 20 33  1  0
 22 34  1  0
 22 35  1  0
 22 36  1  0
M  END
>  <meeko>  (2) 
{"is_sidechain": [false], "free_energy": -11.227, "intermolecular_energy": -13.178, "internal_energy": -0.195}

$$$$
cand_040_out
     RDKit          3D

 36 38  0  0  0  0  0  0  0  0999 V2000
   52.2820  152.7500   26.2510 C   0  0  0  0  0  0  0  0  0  0  0  0
   53.0550  153.5340   27.0120 C   0  0  0  0  0  0  0  0  0  0  0  0
   52.5640  154.7390   27.6960 C   0  0  0  0  0  0  0  0  0  0  0  0
   51.8740  154.6140   28.9100 C   0  0  0  0  0  0  0  0  0  0  0  0
   51.4240  155.7420   29.6020 C   0  0  0  0  0  0  0  0  0  0  0  0
   51.6660  157.0280   29.1060 C   0  0  0  0  0  0  0  0  0  0  0  0
   51.1620  158.2070   29.8410 C   0  0  0  0  0  0  0  0  0  0  0  0
   49.8340  158.0740   30.2290 O   0  0  0  0  0  0  0  0  0  0  0  0
   49.2390  159.0980   30.9210 C   0  0  0  0  0  0  0  0  0  0  0  0
   47.9000  158.9280   31.2770 C   0  0  0  0  0  0  0  0  0  0  0  0
   47.2350  159.9320   31.9840 C   0  0  0  0  0  0  0  0  0  0  0  0
   47.9080  161.1050   32.3350 C   0  0  0  0  0  0  0  0  0  0  0  0
   49.2440  161.2710   31.9790 C   0  0  0  0  0  0  0  0  0  0  0  0
   49.8420  162.4420   32.3560 O   0  0  0  0  0  0  0  0  0  0  0  0
   49.9090  160.2660   31.2710 C   0  0  0  0  0  0  0  0  0  0  0  0
   51.3120  160.4010   30.8770 C   0  0  0  0  0  0  0  0  0  0  0  0
   51.9730  161.3990   31.1560 O   0  0  0  0  0  0  0  0  0  0  0  0
   51.9220  159.2830   30.1220 C   0  0  0  0  0  0  0  0  0  0  0  0
   53.2510  159.4140   29.7660 O   0  0  0  0  0  0  0  0  0  0  0  0
   52.3570  157.1540   27.8920 C   0  0  0  0  0  0  0  0  0  0  0  0
   52.8130  156.0260   27.1810 C   0  0  0  0  0  0  0  0  0  0  0  0
   53.5580  156.2340   25.8900 C   0  0  0  0  0  0  0  0  0  0  0  0
   52.7099  151.8607   25.7652 H   0  0  0  0  0  0  0  0  0  0  0  0
   51.2187  152.9949   26.1114 H   0  0  0  0  0  0  0  0  0  0  0  0
   54.1141  153.2622   27.1320 H   0  0  0  0  0  0  0  0  0  0  0  0
   51.6838  153.6129   29.3243 H   0  0  0  0  0  0  0  0  0  0  0  0
   50.8739  155.6176   30.5464 H   0  0  0  0  0  0  0  0  0  0  0  0
   47.3696  158.0047   31.0011 H   0  0  0  0  0  0  0  0  0  0  0  0
   46.1798  159.7992   32.2650 H   0  0  0  0  0  0  0  0  0  0  0  0
   47.3836  161.8958   32.8914 H   0  0  0  0  0  0  0  0  0  0  0  0
   49.5470  162.8940   33.1220 H   0  0  0  0  0  0  0  0  0  0  0  0
   53.9060  159.5120   30.4290 H   0  0  0  0  0  0  0  0  0  0  0  0
   52.5477  158.1580   27.4849 H   0  0  0  0  0  0  0  0  0  0  0  0
   54.5964  156.5239   26.1085 H   0  0  0  0  0  0  0  0  0  0  0  0
   53.5526  155.3000   25.3090 H   0  0  0  0  0  0  0  0  0  0  0  0
   53.0696  157.0301   25.3090 H   0  0  0  0  0  0  0  0  0  0  0  0
  1  2  2  0
  2  3  1  0
  3  4  2  0
  4  5  1  0
  5  6  2  0
  6  7  1  0
  7  8  1  0
  8  9  1  0
  9 10  2  0
 10 11  1  0
 11 12  2  0
 12 13  1  0
 13 14  1  0
 13 15  2  0
 15 16  1  0
 16 17  2  0
 16 18  1  0
 18 19  1  0
  6 20  1  0
 20 21  2  0
 21 22  1  0
 21  3  1  0
 18  7  2  0
 15  9  1  0
  1 23  1  0
  1 24  1  0
  2 25  1  0
  4 26  1  0
  5 27  1  0
 10 28  1  0
 11 29  1  0
 12 30  1  0
 14 31  1  0
 19 32  1  0
 20 33  1  0
 22 34  1  0
 22 35  1  0
 22 36  1  0
M  END
>  <meeko>  (3) 
{"is_sidechain": [false], "free_energy": -10.792, "intermolecular_energy": -12.647, "internal_energy": -0.214}

$$$$
cand_040_out
     RDKit          3D

 36 38  0  0  0  0  0  0  0  0999 V2000
   53.0700  153.9710   25.1720 C   0  0  0  0  0  0  0  0  0  0  0  0
   53.3000  154.0230   26.4900 C   0  0  0  0  0  0  0  0  0  0  0  0
   52.7840  155.0890   27.3610 C   0  0  0  0  0  0  0  0  0  0  0  0
   52.9610  156.4300   26.9940 C   0  0  0  0  0  0  0  0  0  0  0  0
   52.4520  157.4660   27.7820 C   0  0  0  0  0  0  0  0  0  0  0  0
   51.7390  157.1870   28.9530 C   0  0  0  0  0  0  0  0  0  0  0  0
   51.2290  158.2970   29.7860 C   0  0  0  0  0  0  0  0  0  0  0  0
   49.8970  158.1310   30.1510 O   0  0  0  0  0  0  0  0  0  0  0  0
   49.2980  159.0890   30.9260 C   0  0  0  0  0  0  0  0  0  0  0  0
   47.9550  158.8890   31.2550 C   0  0  0  0  0  0  0  0  0  0  0  0
   47.2850  159.8260   32.0440 C   0  0  0  0  0  0  0  0  0  0  0  0
   47.9550  160.9630   32.5030 C   0  0  0  0  0  0  0  0  0  0  0  0
   49.2940  161.1590   32.1730 C   0  0  0  0  0  0  0  0  0  0  0  0
   49.8880  162.2920   32.6560 O   0  0  0  0  0  0  0  0  0  0  0  0
   49.9640  160.2210   31.3830 C   0  0  0  0  0  0  0  0  0  0  0  0
   51.3700  160.3900   31.0130 C   0  0  0  0  0  0  0  0  0  0  0  0
   52.0290  161.3590   31.3850 O   0  0  0  0  0  0  0  0  0  0  0  0
   51.9860  159.3430   30.1660 C   0  0  0  0  0  0  0  0  0  0  0  0
   53.3180  159.5050   29.8340 O   0  0  0  0  0  0  0  0  0  0  0  0
   51.5610  155.8450   29.3220 C   0  0  0  0  0  0  0  0  0  0  0  0
   52.0720  154.7910   28.5390 C   0  0  0  0  0  0  0  0  0  0  0  0
   51.8340  153.3740   28.9860 C   0  0  0  0  0  0  0  0  0  0  0  0
   53.4843  153.1463   24.5735 H   0  0  0  0  0  0  0  0  0  0  0  0
   52.4668  154.7530   24.6877 H   0  0  0  0  0  0  0  0  0  0  0  0
   53.9069  153.2263   26.9450 H   0  0  0  0  0  0  0  0  0  0  0  0
   53.5092  156.6709   26.0712 H   0  0  0  0  0  0  0  0  0  0  0  0
   52.6135  158.5109   27.4786 H   0  0  0  0  0  0  0  0  0  0  0  0
   47.4264  157.9948   30.8930 H   0  0  0  0  0  0  0  0  0  0  0  0
   46.2280  159.6689   32.3047 H   0  0  0  0  0  0  0  0  0  0  0  0
   47.4263  161.7016   33.1235 H   0  0  0  0  0  0  0  0  0  0  0  0
   50.2880  162.2870   33.5040 H   0  0  0  0  0  0  0  0  0  0  0  0
   53.8910  158.7630   29.8210 H   0  0  0  0  0  0  0  0  0  0  0  0
   51.0095  155.6103   30.2444 H   0  0  0  0  0  0  0  0  0  0  0  0
   51.8270  153.3325   30.0852 H   0  0  0  0  0  0  0  0  0  0  0  0
   50.8648  153.0256   28.5998 H   0  0  0  0  0  0  0  0  0  0  0  0
   52.6362  152.7280   28.5998 H   0  0  0  0  0  0  0  0  0  0  0  0
  1  2  2  0
  2  3  1  0
  3  4  2  0
  4  5  1  0
  5  6  2  0
  6  7  1  0
  7  8  1  0
  8  9  1  0
  9 10  2  0
 10 11  1  0
 11 12  2  0
 12 13  1  0
 13 14  1  0
 13 15  2  0
 15 16  1  0
 16 17  2  0
 16 18  1  0
 18 19  1  0
  6 20  1  0
 20 21  2  0
 21 22  1  0
 21  3  1  0
 18  7  2  0
 15  9  1  0
  1 23  1  0
  1 24  1  0
  2 25  1  0
  4 26  1  0
  5 27  1  0
 10 28  1  0
 11 29  1  0
 12 30  1  0
 14 31  1  0
 19 32  1  0
 20 33  1  0
 22 34  1  0
 22 35  1  0
 22 36  1  0
M  END
>  <meeko>  (4) 
{"is_sidechain": [false], "free_energy": -10.141, "intermolecular_energy": -11.924, "internal_energy": -0.172}

$$$$
cand_040_out
     RDKit          3D

 36 38  0  0  0  0  0  0  0  0999 V2000
   52.9660  152.5340   25.9320 C   0  0  0  0  0  0  0  0  0  0  0  0
   53.5850  153.4540   26.6820 C   0  0  0  0  0  0  0  0  0  0  0  0
   52.8760  154.5180   27.4070 C   0  0  0  0  0  0  0  0  0  0  0  0
   52.1680  154.2060   28.5760 C   0  0  0  0  0  0  0  0  0  0  0  0
   51.5130  155.2000   29.3080 C   0  0  0  0  0  0  0  0  0  0  0  0
   51.5600  156.5380   28.8980 C   0  0  0  0  0  0  0  0  0  0  0  0
   50.8410  157.5710   29.6730 C   0  0  0  0  0  0  0  0  0  0  0  0
   51.6460  158.6560   30.0020 O   0  0  0  0  0  0  0  0  0  0  0  0
   51.1030  159.6900   30.7210 C   0  0  0  0  0  0  0  0  0  0  0  0
   51.9510  160.7510   31.0430 C   0  0  0  0  0  0  0  0  0  0  0  0
   51.4610  161.8360   31.7730 C   0  0  0  0  0  0  0  0  0  0  0  0
   50.1250  161.8610   32.1800 C   0  0  0  0  0  0  0  0  0  0  0  0
   49.2830  160.8010   31.8580 C   0  0  0  0  0  0  0  0  0  0  0  0
   47.9870  160.8900   32.2870 O   0  0  0  0  0  0  0  0  0  0  0  0
   49.7730  159.7140   31.1280 C   0  0  0  0  0  0  0  0  0  0  0  0
   48.9210  158.5800   30.7680 C   0  0  0  0  0  0  0  0  0  0  0  0
   47.7330  158.5320   31.0840 O   0  0  0  0  0  0  0  0  0  0  0  0
   49.5390  157.4750   30.0000 C   0  0  0  0  0  0  0  0  0  0  0  0
   48.7220  156.4150   29.6540 O   0  0  0  0  0  0  0  0  0  0  0  0
   52.2690  156.8510   27.7280 C   0  0  0  0  0  0  0  0  0  0  0  0
   52.9310  155.8580   26.9780 C   0  0  0  0  0  0  0  0  0  0  0  0
   53.6820  156.2660   25.7400 C   0  0  0  0  0  0  0  0  0  0  0  0
   53.5529  151.7618   25.4131 H   0  0  0  0  0  0  0  0  0  0  0  0
   51.8704  152.5502   25.8346 H   0  0  0  0  0  0  0  0  0  0  0  0
   54.6814  153.4115   26.7598 H   0  0  0  0  0  0  0  0  0  0  0  0
   52.1274  153.1628   28.9224 H   0  0  0  0  0  0  0  0  0  0  0  0
   50.9546  154.9284   30.2159 H   0  0  0  0  0  0  0  0  0  0  0  0
   53.0031  160.7325   30.7224 H   0  0  0  0  0  0  0  0  0  0  0  0
   52.1283  162.6725   32.0280 H   0  0  0  0  0  0  0  0  0  0  0  0
   49.7394  162.7167   32.7537 H   0  0  0  0  0  0  0  0  0  0  0  0
   47.7790  161.3950   33.0490 H   0  0  0  0  0  0  0  0  0  0  0  0
   48.6720  155.6610   30.2100 H   0  0  0  0  0  0  0  0  0  0  0  0
   52.3091  157.8964   27.3881 H   0  0  0  0  0  0  0  0  0  0  0  0
   54.6150  156.7729   26.0275 H   0  0  0  0  0  0  0  0  0  0  0  0
   53.9188  155.3725   25.1437 H   0  0  0  0  0  0  0  0  0  0  0  0
   53.0613  156.9509   25.1437 H   0  0  0  0  0  0  0  0  0  0  0  0
  1  2  2  0
  2  3  1  0
  3  4  2  0
  4  5  1  0
  5  6  2  0
  6  7  1  0
  7  8  1  0
  8  9  1  0
  9 10  2  0
 10 11  1  0
 11 12  2  0
 12 13  1  0
 13 14  1  0
 13 15  2  0
 15 16  1  0
 16 17  2  0
 16 18  1  0
 18 19  1  0
  6 20  1  0
 20 21  2  0
 21 22  1  0
 21  3  1  0
 18  7  2  0
 15  9  1  0
  1 23  1  0
  1 24  1  0
  2 25  1  0
  4 26  1  0
  5 27  1  0
 10 28  1  0
 11 29  1  0
 12 30  1  0
 14 31  1  0
 19 32  1  0
 20 33  1  0
 22 34  1  0
 22 35  1  0
 22 36  1  0
M  END
>  <meeko>  (5) 
{"is_sidechain": [false], "free_energy": -8.872, "intermolecular_energy": -10.389, "internal_energy": -0.216}

$$$$
