cand_029_out
     RDKit          3D

 50 53  0  0  0  0  0  0  0  0999 V2000
   54.4200  155.9820   24.8490 C   0  0  0  0  0  0  0  0  0  0  0  0
   53.2190  155.0490   24.8900 C   0  0  0  0  0  0  0  0  0  0  0  0
   52.6910  154.8650   26.2960 C   0  0  0  0  0  0  0  0  0  0  0  0
   52.3900  156.0080   27.0620 C   0  0  0  0  0  0  0  0  0  0  0  0
   51.9200  155.9080   28.3800 C   0  0  0  0  0  0  0  0  0  0  0  0
   51.5880  157.1320   29.1380 C   0  0  0  0  0  0  0  0  0  0  0  0
   50.2740  157.1480   29.5910 O   0  0  0  0  0  0  0  0  0  0  0  0
   49.8320  158.2290   30.3100 C   0  0  0  0  0  0  0  0  0  0  0  0
   48.5100  158.1970   30.7550 C   0  0  0  0  0  0  0  0  0  0  0  0
   47.9960  159.2660   31.4900 C   0  0  0  0  0  0  0  0  0  0  0  0
   48.8030  160.3690   31.7790 C   0  0  0  0  0  0  0  0  0  0  0  0
   50.1220  160.3990   31.3340 C   0  0  0  0  0  0  0  0  0  0  0  0
   50.8560  161.5090   31.6520 O   0  0  0  0  0  0  0  0  0  0  0  0
   50.6360  159.3270   30.5990 C   0  0  0  0  0  0  0  0  0  0  0  0
   52.0160  159.3190   30.1100 C   0  0  0  0  0  0  0  0  0  0  0  0
   52.7860  160.2550   30.3190 O   0  0  0  0  0  0  0  0  0  0  0  0
   52.4650  158.1320   29.3460 C   0  0  0  0  0  0  0  0  0  0  0  0
   53.7670  158.1420   28.8790 O   0  0  0  0  0  0  0  0  0  0  0  0
   51.7380  154.6320   28.9200 C   0  0  0  0  0  0  0  0  0  0  0  0
   52.0400  153.4890   28.1740 C   0  0  0  0  0  0  0  0  0  0  0  0
   52.5270  153.5850   26.8620 C   0  0  0  0  0  0  0  0  0  0  0  0
   52.8360  152.4420   26.0930 N   0  0  0  0  0  0  0  0  0  0  0  0
   54.2550  152.3580   25.7140 C   0  0  0  0  0  0  0  0  0  0  0  0
   54.4290  151.2340   24.6910 C   0  0  0  0  0  0  0  0  0  0  0  0
   53.8950  149.9090   25.2320 C   0  0  0  0  0  0  0  0  0  0  0  0
   52.4530  150.0580   25.7140 C   0  0  0  0  0  0  0  0  0  0  0  0
   52.3150  151.2110   26.7090 C   0  0  0  0  0  0  0  0  0  0  0  0
   54.7315  156.2240   25.8758 H   0  0  0  0  0  0  0  0  0  0  0  0
   55.2494  155.4890   24.3208 H   0  0  0  0  0  0  0  0  0  0  0  0
   54.1474  156.9076   24.3208 H   0  0  0  0  0  0  0  0  0  0  0  0
   52.4198  155.4713   24.2631 H   0  0  0  0  0  0  0  0  0  0  0  0
   53.5403  154.0655   24.5166 H   0  0  0  0  0  0  0  0  0  0  0  0
   52.5269  157.0040   26.6156 H   0  0  0  0  0  0  0  0  0  0  0  0
   47.8733  157.3296   30.5266 H   0  0  0  0  0  0  0  0  0  0  0  0
   46.9542  159.2401   31.8422 H   0  0  0  0  0  0  0  0  0  0  0  0
   48.3972  161.2123   32.3571 H   0  0  0  0  0  0  0  0  0  0  0  0
   50.5200  162.1340   32.2630 H   0  0  0  0  0  0  0  0  0  0  0  0
   54.3790  158.7690   29.2110 H   0  0  0  0  0  0  0  0  0  0  0  0
   51.3524  154.5257   29.9447 H   0  0  0  0  0  0  0  0  0  0  0  0
   51.8931  152.4961   28.6241 H   0  0  0  0  0  0  0  0  0  0  0  0
   54.5762  153.3126   25.2719 H   0  0  0  0  0  0  0  0  0  0  0  0
   54.8668  152.1498   26.6041 H   0  0  0  0  0  0  0  0  0  0  0  0
   53.8801  151.4948   23.7741 H   0  0  0  0  0  0  0  0  0  0  0  0
   55.5022  151.1175   24.4798 H   0  0  0  0  0  0  0  0  0  0  0  0
   53.9315  149.1532   24.4336 H   0  0  0  0  0  0  0  0  0  0  0  0
   54.5196  149.5997   26.0830 H   0  0  0  0  0  0  0  0  0  0  0  0
   51.8041  150.2531   24.8475 H   0  0  0  0  0  0  0  0  0  0  0  0
   52.1584  149.1265   26.2196 H   0  0  0  0  0  0  0  0  0  0  0  0
   51.2550  151.3489   26.9687 H   0  0  0  0  0  0  0  0  0  0  0  0
   52.8843  150.9833   27.6222 H   0  0  0  0  0  0  0  0  0  0  0  0
  1  2  1  0
  2  3  1  0
  3  4  2  0
  4  5  1  0
  5  6  1  0
  6  7  1  0
  7  8  1  0
  8  9  2  0
  9 10  1  0
 10 11  2  0
 11 12  1  0
 12 13  1  0
 12 14  2  0
 14 15  1  0
 15 16  2  0
 15 17  1  0
 17 18  1  0
  5 19  2  0
 19 20  1  0
 20 21  2  0
 21 22  1  0
 22 23  1  0
 23 24  1  0
 24 25  1  0
 25 26  1  0
 26 27  1  0
 21  3  1  0
 27 22  1  0
 17  6  2  0
 14  8  1  0
  1 28  1  0
  1 29  1  0
  1 30  1  0
  2 31  1  0
  2 32  1  0
  4 33  1  0
  9 34  1  0
 10 35  1  0
 11 36  1  0
 13 37  1  0
 18 38  1  0
 19 39  1  0
 20 40  1  0
 23 41  1  0
 23 42  1  0
 24 43  1  0
 24 44  1  0
 25 45  1  0
 25 46  1  0
 26 47  1  0
 26 48  1  0
 27 49  1  0
 27 50  1  0
M  END
>  <meeko>  (1) 
{"is_sidechain": [false], "free_energy": -11.049, "intermolecular_energy": -13.633, "internal_energy": -0.154}

$$$$
cand_029_out
     RDKit          3D

 50 53  0  0  0  0  0  0  0  0999 V2000
   52.7920  161.1390   31.6650 C   0  0  0  0  0  0  0  0  0  0  0  0
   52.3010  160.8490   30.2540 C   0  0  0  0  0  0  0  0  0  0  0  0
   51.5390  159.5450   30.1750 C   0  0  0  0  0  0  0  0  0  0  0  0
   52.0820  158.4890   29.4160 C   0  0  0  0  0  0  0  0  0  0  0  0
   51.4160  157.2620   29.2820 C   0  0  0  0  0  0  0  0  0  0  0  0
   52.0340  156.1700   28.5010 C   0  0  0  0  0  0  0  0  0  0  0  0
   52.5890  156.6090   27.3040 O   0  0  0  0  0  0  0  0  0  0  0  0
   53.1960  155.6970   26.4790 C   0  0  0  0  0  0  0  0  0  0  0  0
   53.7490  156.1840   25.2950 C   0  0  0  0  0  0  0  0  0  0  0  0
   54.3800  155.3090   24.4090 C   0  0  0  0  0  0  0  0  0  0  0  0
   54.4560  153.9460   24.7060 C   0  0  0  0  0  0  0  0  0  0  0  0
   53.9020  153.4630   25.8900 C   0  0  0  0  0  0  0  0  0  0  0  0
   54.0130  152.1180   26.1180 O   0  0  0  0  0  0  0  0  0  0  0  0
   53.2720  154.3400   26.7760 C   0  0  0  0  0  0  0  0  0  0  0  0
   52.6770  153.8730   28.0290 C   0  0  0  0  0  0  0  0  0  0  0  0
   52.6980  152.6890   28.3580 O   0  0  0  0  0  0  0  0  0  0  0  0
   52.0380  154.8850   28.9020 C   0  0  0  0  0  0  0  0  0  0  0  0
   51.4670  154.4300   30.0770 O   0  0  0  0  0  0  0  0  0  0  0  0
   50.1920  157.0990   29.9390 C   0  0  0  0  0  0  0  0  0  0  0  0
   49.6390  158.1410   30.6880 C   0  0  0  0  0  0  0  0  0  0  0  0
   50.2930  159.3760   30.8110 C   0  0  0  0  0  0  0  0  0  0  0  0
   49.7500  160.4390   31.5650 N   0  0  0  0  0  0  0  0  0  0  0  0
   48.5850  161.0720   30.9270 C   0  0  0  0  0  0  0  0  0  0  0  0
   48.2350  162.3500   31.6920 C   0  0  0  0  0  0  0  0  0  0  0  0
   47.9960  162.0570   33.1720 C   0  0  0  0  0  0  0  0  0  0  0  0
   49.1800  161.3050   33.7780 C   0  0  0  0  0  0  0  0  0  0  0  0
   49.5190  160.0540   32.9660 C   0  0  0  0  0  0  0  0  0  0  0  0
   52.0824  160.7199   32.3936 H   0  0  0  0  0  0  0  0  0  0  0  0
   53.7810  160.6801   31.8107 H   0  0  0  0  0  0  0  0  0  0  0  0
   52.8675  162.2267   31.8107 H   0  0  0  0  0  0  0  0  0  0  0  0
   51.6390  161.6669   29.9334 H   0  0  0  0  0  0  0  0  0  0  0  0
   53.1807  160.7682   29.5985 H   0  0  0  0  0  0  0  0  0  0  0  0
   53.0518  158.6305   28.9165 H   0  0  0  0  0  0  0  0  0  0  0  0
   53.6880  157.2568   25.0594 H   0  0  0  0  0  0  0  0  0  0  0  0
   54.8179  155.6932   23.4759 H   0  0  0  0  0  0  0  0  0  0  0  0
   54.9517  153.2560   24.0073 H   0  0  0  0  0  0  0  0  0  0  0  0
   53.2420  151.5930   26.2050 H   0  0  0  0  0  0  0  0  0  0  0  0
   51.6830  153.5790   30.4030 H   0  0  0  0  0  0  0  0  0  0  0  0
   49.6587  156.1397   29.8652 H   0  0  0  0  0  0  0  0  0  0  0  0
   48.6724  157.9900   31.1908 H   0  0  0  0  0  0  0  0  0  0  0  0
   48.8255  161.3208   29.8828 H   0  0  0  0  0  0  0  0  0  0  0  0
   47.7293  160.3810   30.9441 H   0  0  0  0  0  0  0  0  0  0  0  0
   49.0658  163.0646   31.5968 H   0  0  0  0  0  0  0  0  0  0  0  0
   47.3124  162.7708   31.2657 H   0  0  0  0  0  0  0  0  0  0  0  0
   47.8597  163.0070   33.7096 H   0  0  0  0  0  0  0  0  0  0  0  0
   47.0970  161.4299   33.2650 H   0  0  0  0  0  0  0  0  0  0  0  0
   50.0562  161.9698   33.7943 H   0  0  0  0  0  0  0  0  0  0  0  0
   48.9083  160.9938   34.7975 H   0  0  0  0  0  0  0  0  0  0  0  0
   50.4265  159.5846   33.3737 H   0  0  0  0  0  0  0  0  0  0  0  0
   48.6855  159.3383   33.0216 H   0  0  0  0  0  0  0  0  0  0  0  0
  1  2  1  0
  2  3  1  0
  3  4  2  0
  4  5  1  0
  5  6  1  0
  6  7  1  0
  7  8  1  0
  8  9  2  0
  9 10  1  0
 10 11  2  0
 11 12  1  0
 12 13  1  0
 12 14  2  0
 14 15  1  0
 15 16  2  0
 15 17  1  0
 17 18  1  0
  5 19  2  0
 19 20  1  0
 20 21  2  0
 21 22  1  0
 22 23  1  0
 23 24  1  0
 24 25  1  0
 25 26  1  0
 26 27  1  0
 21  3  1  0
 27 22  1  0
 17  6  2  0
 14  8  1  0
  1 28  1  0
  1 29  1  0
  1 30  1  0
  2 31  1  0
  2 32  1  0
  4 33  1  0
  9 34  1  0
 10 35  1  0
 11 36  1  0
 13 37  1  0
 18 38  1  0
 19 39  1  0
 20 40  1  0
 23 41  1  0
 23 42  1  0
 24 43  1  0
 24 44  1  0
 25 45  1  0
 25 46  1  0
 26 47  1  0
 26 48  1  0
 27 49  1  0
 27 50  1  0
M  END
>  <meeko>  (2) 
{"is_sidechain": [false], "free_energy": -10.821, "intermolecular_energy": -13.194, "internal_energy": -0.311}

$$$$
cand_029_out
     RDKit          3D

 50 53  0  0  0  0  0  0  0  0999 V2000
   53.9690  156.6500   25.2170 C   0  0  0  0  0  0  0  0  0  0  0  0
   53.3390  155.2720   25.3630 C   0  0  0  0  0  0  0  0  0  0  0  0
   52.7870  155.0460   26.7530 C   0  0  0  0  0  0  0  0  0  0  0  0
   52.2160  156.1340   27.4410 C   0  0  0  0  0  0  0  0  0  0  0  0
   51.7080  155.9980   28.7410 C   0  0  0  0  0  0  0  0  0  0  0  0
   51.0910  157.1590   29.4160 C   0  0  0  0  0  0  0  0  0  0  0  0
   51.9950  158.1870   29.6580 O   0  0  0  0  0  0  0  0  0  0  0  0
   51.5560  159.3260   30.2820 C   0  0  0  0  0  0  0  0  0  0  0  0
   52.4950  160.3360   30.4930 C   0  0  0  0  0  0  0  0  0  0  0  0
   52.1130  161.5210   31.1250 C   0  0  0  0  0  0  0  0  0  0  0  0
   50.7930  161.6970   31.5450 C   0  0  0  0  0  0  0  0  0  0  0  0
   49.8570  160.6870   31.3320 C   0  0  0  0  0  0  0  0  0  0  0  0
   48.5830  160.9250   31.7690 O   0  0  0  0  0  0  0  0  0  0  0  0
   50.2400  159.5020   30.7000 C   0  0  0  0  0  0  0  0  0  0  0  0
   49.2890  158.4150   30.4580 C   0  0  0  0  0  0  0  0  0  0  0  0
   48.1120  158.4920   30.8040 O   0  0  0  0  0  0  0  0  0  0  0  0
   49.7940  157.2020   29.7740 C   0  0  0  0  0  0  0  0  0  0  0  0
   48.8890  156.1780   29.5630 O   0  0  0  0  0  0  0  0  0  0  0  0
   51.7640  154.7380   29.3440 C   0  0  0  0  0  0  0  0  0  0  0  0
   52.3350  153.6510   28.6750 C   0  0  0  0  0  0  0  0  0  0  0  0
   52.8610  153.7860   27.3820 C   0  0  0  0  0  0  0  0  0  0  0  0
   53.4390  152.6990   26.6920 N   0  0  0  0  0  0  0  0  0  0  0  0
   52.4480  151.7860   26.1020 C   0  0  0  0  0  0  0  0  0  0  0  0
   53.1650  150.5310   25.6030 C   0  0  0  0  0  0  0  0  0  0  0  0
   54.2800  150.8870   24.6210 C   0  0  0  0  0  0  0  0  0  0  0  0
   55.2320  151.9170   25.2270 C   0  0  0  0  0  0  0  0  0  0  0  0
   54.4740  153.1410   25.7430 C   0  0  0  0  0  0  0  0  0  0  0  0
   54.1621  157.0724   26.2141 H   0  0  0  0  0  0  0  0  0  0  0  0
   54.9169  156.5633   24.6657 H   0  0  0  0  0  0  0  0  0  0  0  0
   53.2833  157.3101   24.6657 H   0  0  0  0  0  0  0  0  0  0  0  0
   52.5193  155.1773   24.6356 H   0  0  0  0  0  0  0  0  0  0  0  0
   54.1208  154.5199   25.1814 H   0  0  0  0  0  0  0  0  0  0  0  0
   52.1672  157.1152   26.9462 H   0  0  0  0  0  0  0  0  0  0  0  0
   53.5350  160.1990   30.1619 H   0  0  0  0  0  0  0  0  0  0  0  0
   52.8532  162.3173   31.2923 H   0  0  0  0  0  0  0  0  0  0  0  0
   50.4928  162.6308   32.0428 H   0  0  0  0  0  0  0  0  0  0  0  0
   48.2910  160.5640   32.5840 H   0  0  0  0  0  0  0  0  0  0  0  0
   48.5790  155.6710   30.2880 H   0  0  0  0  0  0  0  0  0  0  0  0
   51.3545  154.6002   30.3556 H   0  0  0  0  0  0  0  0  0  0  0  0
   52.3724  152.6707   29.1727 H   0  0  0  0  0  0  0  0  0  0  0  0
   51.7035  151.5080   26.8625 H   0  0  0  0  0  0  0  0  0  0  0  0
   51.9379  152.2819   25.2630 H   0  0  0  0  0  0  0  0  0  0  0  0
   53.5997  150.0000   26.4627 H   0  0  0  0  0  0  0  0  0  0  0  0
   52.4334  149.8942   25.0842 H   0  0  0  0  0  0  0  0  0  0  0  0
   54.8452  149.9766   24.3724 H   0  0  0  0  0  0  0  0  0  0  0  0
   53.8269  151.3171   23.7157 H   0  0  0  0  0  0  0  0  0  0  0  0
   55.7754  151.4536   26.0636 H   0  0  0  0  0  0  0  0  0  0  0  0
   55.9300  152.2468   24.4434 H   0  0  0  0  0  0  0  0  0  0  0  0
   55.1738  153.8210   26.2508 H   0  0  0  0  0  0  0  0  0  0  0  0
   54.0042  153.6696   24.9004 H   0  0  0  0  0  0  0  0  0  0  0  0
  1  2  1  0
  2  3  1  0
  3  4  2  0
  4  5  1  0
  5  6  1  0
  6  7  1  0
  7  8  1  0
  8  9  2  0
  9 10  1  0
 10 11  2  0
 11 12  1  0
 12 13  1  0
 12 14  2  0
 14 15  1  0
 15 16  2  0
 15 17  1  0
 17 18  1  0
  5 19  2  0
 19 20  1  0
 20 21  2  0
 21 22  1  0
 22 23  1  0
 23 24  1  0
 24 25  1  0
 25 26  1  0
 26 27  1  0
 21  3  1  0
 27 22  1  0
 17  6  2  0
 14  8  1  0
  1 28  1  0
  1 29  1  0
  1 30  1  0
  2 31  1  0
  2 32  1  0
  4 33  1  0
  9 34  1  0
 10 35  1  0
 11 36  1  0
 13 37  1  0
 18 38  1  0
 19 39  1  0
 20 40  1  0
 23 41  1  0
 23 42  1  0
 24 43  1  0
 24 44  1  0
 25 45  1  0
 25 46  1  0
 26 47  1  0
 26 48  1  0
 27 49  1  0
 27 50  1  0
M  END
>  <meeko>  (3) 
{"is_sidechain": [false], "free_energy": -9.687, "intermolecular_energy": -12.872, "internal_energy": 0.766}

$$$$
cand_029_out
     RDKit          3D

 50 53  0  0  0  0  0  0  0  0999 V2000
   47.4540  158.8030   29.9910 C   0  0  0  0  0  0  0  0  0  0  0  0
   48.4640  158.2080   30.9610 C   0  0  0  0  0  0  0  0  0  0  0  0
   49.8800  158.3040   30.4360 C   0  0  0  0  0  0  0  0  0  0  0  0
   50.4040  157.2240   29.6980 C   0  0  0  0  0  0  0  0  0  0  0  0
   51.7160  157.2390   29.2040 C   0  0  0  0  0  0  0  0  0  0  0  0
   52.2160  156.0980   28.4090 C   0  0  0  0  0  0  0  0  0  0  0  0
   52.8010  156.4890   27.2100 O   0  0  0  0  0  0  0  0  0  0  0  0
   53.3060  155.5280   26.3720 C   0  0  0  0  0  0  0  0  0  0  0  0
   53.8940  155.9680   25.1860 C   0  0  0  0  0  0  0  0  0  0  0  0
   54.4270  155.0410   24.2880 C   0  0  0  0  0  0  0  0  0  0  0  0
   54.3710  153.6750   24.5750 C   0  0  0  0  0  0  0  0  0  0  0  0
   53.7830  153.2400   25.7610 C   0  0  0  0  0  0  0  0  0  0  0  0
   53.7620  151.8890   25.9790 O   0  0  0  0  0  0  0  0  0  0  0  0
   53.2510  154.1680   26.6590 C   0  0  0  0  0  0  0  0  0  0  0  0
   52.6240  153.7530   27.9150 C   0  0  0  0  0  0  0  0  0  0  0  0
   52.5310  152.5700   28.2360 O   0  0  0  0  0  0  0  0  0  0  0  0
   52.0970  154.8160   28.8020 C   0  0  0  0  0  0  0  0  0  0  0  0
   51.4950  154.4110   29.9790 O   0  0  0  0  0  0  0  0  0  0  0  0
   52.5010  158.3700   29.4480 C   0  0  0  0  0  0  0  0  0  0  0  0
   51.9970  159.4440   30.1870 C   0  0  0  0  0  0  0  0  0  0  0  0
   50.6900  159.4270   30.6970 C   0  0  0  0  0  0  0  0  0  0  0  0
   50.1640  160.5040   31.4430 N   0  0  0  0  0  0  0  0  0  0  0  0
   49.0700  161.2100   30.7590 C   0  0  0  0  0  0  0  0  0  0  0  0
   48.7480  162.4920   31.5300 C   0  0  0  0  0  0  0  0  0  0  0  0
   48.4160  162.1870   32.9900 C   0  0  0  0  0  0  0  0  0  0  0  0
   49.5260  161.3620   33.6410 C   0  0  0  0  0  0  0  0  0  0  0  0
   49.8410  160.1080   32.8230 C   0  0  0  0  0  0  0  0  0  0  0  0
   46.6409  159.2820   30.5563 H   0  0  0  0  0  0  0  0  0  0  0  0
   47.9513  159.5524   29.3577 H   0  0  0  0  0  0  0  0  0  0  0  0
   47.0396  158.0047   29.3577 H   0  0  0  0  0  0  0  0  0  0  0  0
   48.4018  158.7509   31.9156 H   0  0  0  0  0  0  0  0  0  0  0  0
   48.2221  157.1430   31.0920 H   0  0  0  0  0  0  0  0  0  0  0  0
   49.7680  156.3476   29.5047 H   0  0  0  0  0  0  0  0  0  0  0  0
   53.9377  157.0434   24.9586 H   0  0  0  0  0  0  0  0  0  0  0  0
   54.8918  155.3870   23.3530 H   0  0  0  0  0  0  0  0  0  0  0  0
   54.7899  152.9449   23.8668 H   0  0  0  0  0  0  0  0  0  0  0  0
   54.0400  151.5430   26.8040 H   0  0  0  0  0  0  0  0  0  0  0  0
   50.8800  153.7030   29.9710 H   0  0  0  0  0  0  0  0  0  0  0  0
   53.5270  158.4151   29.0539 H   0  0  0  0  0  0  0  0  0  0  0  0
   52.6372  160.3191   30.3723 H   0  0  0  0  0  0  0  0  0  0  0  0
   49.3782  161.4633   29.7339 H   0  0  0  0  0  0  0  0  0  0  0  0
   48.1791  160.5661   30.7185 H   0  0  0  0  0  0  0  0  0  0  0  0
   49.6192  163.1625   31.4922 H   0  0  0  0  0  0  0  0  0  0  0  0
   47.8727  162.9690   31.0649 H   0  0  0  0  0  0  0  0  0  0  0  0
   48.3018  163.1335   33.5387 H   0  0  0  0  0  0  0  0  0  0  0  0
   47.4815  161.6078   33.0243 H   0  0  0  0  0  0  0  0  0  0  0  0
   50.4339  161.9786   33.7151 H   0  0  0  0  0  0  0  0  0  0  0  0
   49.1852  161.0485   34.6388 H   0  0  0  0  0  0  0  0  0  0  0  0
   50.7005  159.5844   33.2671 H   0  0  0  0  0  0  0  0  0  0  0  0
   48.9698  159.4365   32.8224 H   0  0  0  0  0  0  0  0  0  0  0  0
  1  2  1  0
  2  3  1  0
  3  4  2  0
  4  5  1  0
  5  6  1  0
  6  7  1  0
  7  8  1  0
  8  9  2  0
  9 10  1  0
 10 11  2  0
 11 12  1  0
 12 13  1  0
 12 14  2  0
 14 15  1  0
 15 16  2  0
 15 17  1  0
 17 18  1  0
  5 19  2  0
 19 20  1  0
 20 21  2  0
 21 22  1  0
 22 23  1  0
 23 24  1  0
 24 25  1  0
 25 26  1  0
 26 27  1  0
 21  3  1  0
 27 22  1  0
 17  6  2  0
 14  8  1  0
  1 28  1  0
  1 29  1  0
  1 30  1  0
  2 31  1  0
  2 32  1  0
  4 33  1  0
  9 34  1  0
 10 35  1  0
 11 36  1  0
 13 37  1  0
 18 38  1  0
 19 39  1  0
 20 40  1  0
 23 41  1  0
 23 42  1  0
 24 43  1  0
 24 44  1  0
 25 45  1  0
 25 46  1  0
 26 47  1  0
 26 48  1  0
 27 49  1  0
 27 50  1  0
M  END
>  <meeko>  (4) 
{"is_sidechain": [false], "free_energy": -9.286, "intermolecular_energy": -12.467, "internal_energy": 0.856}

$$$$
cand_029_out
     RDKit          3D

 50 53  0  0  0  0  0  0  0  0999 V2000
   51.5620  152.7780   28.8250 C   0  0  0  0  0  0  0  0  0  0  0  0
   52.9110  153.4700   28.6970 C   0  0  0  0  0  0  0  0  0  0  0  0
   52.7780  154.8780   28.1610 C   0  0  0  0  0  0  0  0  0  0  0  0
   52.2280  155.8710   28.9940 C   0  0  0  0  0  0  0  0  0  0  0  0
   52.0550  157.1910   28.5500 C   0  0  0  0  0  0  0  0  0  0  0  0
   51.5010  158.2090   29.4670 C   0  0  0  0  0  0  0  0  0  0  0  0
   50.1460  158.0290   29.7200 O   0  0  0  0  0  0  0  0  0  0  0  0
   49.5030  158.9060   30.5550 C   0  0  0  0  0  0  0  0  0  0  0  0
   48.1460  158.6790   30.7900 C   0  0  0  0  0  0  0  0  0  0  0  0
   47.4320  159.5360   31.6290 C   0  0  0  0  0  0  0  0  0  0  0  0
   48.0730  160.6200   32.2320 C   0  0  0  0  0  0  0  0  0  0  0  0
   49.4280  160.8440   31.9970 C   0  0  0  0  0  0  0  0  0  0  0  0
   49.9920  161.9240   32.6190 O   0  0  0  0  0  0  0  0  0  0  0  0
   50.1420  159.9850   31.1570 C   0  0  0  0  0  0  0  0  0  0  0  0
   51.5660  160.1850   30.8820 C   0  0  0  0  0  0  0  0  0  0  0  0
   52.1980  161.1190   31.3710 O   0  0  0  0  0  0  0  0  0  0  0  0
   52.2330  159.2150   29.9830 C   0  0  0  0  0  0  0  0  0  0  0  0
   53.5740  159.4210   29.7200 O   0  0  0  0  0  0  0  0  0  0  0  0
   52.4600  157.5090   27.2510 C   0  0  0  0  0  0  0  0  0  0  0  0
   53.0000  156.5310   26.4110 C   0  0  0  0  0  0  0  0  0  0  0  0
   53.1590  155.2060   26.8440 C   0  0  0  0  0  0  0  0  0  0  0  0
   53.7040  154.2070   26.0090 N   0  0  0  0  0  0  0  0  0  0  0  0
   52.7520  153.1320   25.6860 C   0  0  0  0  0  0  0  0  0  0  0  0
   53.5060  151.9940   24.9960 C   0  0  0  0  0  0  0  0  0  0  0  0
   54.2520  152.4970   23.7610 C   0  0  0  0  0  0  0  0  0  0  0  0
   55.1520  153.6810   24.1120 C   0  0  0  0  0  0  0  0  0  0  0  0
   54.3690  154.7810   24.8290 C   0  0  0  0  0  0  0  0  0  0  0  0
   51.3145  152.6511   29.8893 H   0  0  0  0  0  0  0  0  0  0  0  0
   50.7882  153.3905   28.3391 H   0  0  0  0  0  0  0  0  0  0  0  0
   51.6080  151.7922   28.3391 H   0  0  0  0  0  0  0  0  0  0  0  0
   53.3844  153.5111   29.6891 H   0  0  0  0  0  0  0  0  0  0  0  0
   53.5223  152.8931   27.9874 H   0  0  0  0  0  0  0  0  0  0  0  0
   51.9265  155.6056   30.0180 H   0  0  0  0  0  0  0  0  0  0  0  0
   47.6399  157.8258   30.3146 H   0  0  0  0  0  0  0  0  0  0  0  0
   46.3628  159.3571   31.8154 H   0  0  0  0  0  0  0  0  0  0  0  0
   47.5092  161.2961   32.8915 H   0  0  0  0  0  0  0  0  0  0  0  0
   49.4600  162.6550   32.8630 H   0  0  0  0  0  0  0  0  0  0  0  0
   53.9380  159.1500   28.9000 H   0  0  0  0  0  0  0  0  0  0  0  0
   52.3526  158.5409   26.8853 H   0  0  0  0  0  0  0  0  0  0  0  0
   53.3062  156.8055   25.3908 H   0  0  0  0  0  0  0  0  0  0  0  0
   52.2874  152.7598   26.6110 H   0  0  0  0  0  0  0  0  0  0  0  0
   51.9667  153.5173   25.0191 H   0  0  0  0  0  0  0  0  0  0  0  0
   54.2306  151.5630   25.7025 H   0  0  0  0  0  0  0  0  0  0  0  0
   52.7768  151.2343   24.6781 H   0  0  0  0  0  0  0  0  0  0  0  0
   54.8704  151.6819   23.3570 H   0  0  0  0  0  0  0  0  0  0  0  0
   53.5141  152.8258   23.0144 H   0  0  0  0  0  0  0  0  0  0  0  0
   55.9629  153.3324   24.7685 H   0  0  0  0  0  0  0  0  0  0  0  0
   55.5585  154.0967   23.1782 H   0  0  0  0  0  0  0  0  0  0  0  0
   55.0585  155.5774   25.1457 H   0  0  0  0  0  0  0  0  0  0  0  0
   53.6157  155.2039   24.1480 H   0  0  0  0  0  0  0  0  0  0  0  0
  1  2  1  0
  2  3  1  0
  3  4  2  0
  4  5  1  0
  5  6  1  0
  6  7  1  0
  7  8  1  0
  8  9  2  0
  9 10  1  0
 10 11  2  0
 11 12  1  0
 12 13  1  0
 12 14  2  0
 14 15  1  0
 15 16  2  0
 15 17  1  0
 17 18  1  0
  5 19  2  0
 19 20  1  0
 20 21  2  0
 21 22  1  0
 22 23  1  0
 23 24  1  0
 24 25  1  0
 25 26  1  0
 26 27  1  0
 21  3  1  0
 27 22  1  0
 17  6  2  0
 14  8  1  0
  1 28  1  0
  1 29  1  0
  1 30  1  0
  2 31  1  0
  2 32  1  0
  4 33  1  0
  9 34  1  0
 10 35  1  0
 11 36  1  0
 13 37  1  0
 18 38  1  0
 19 39  1  0
 20 40  1  0
 23 41  1  0
 23 42  1  0
 24 43  1  0
 24 44  1  0
 25 45  1  0
 25 46  1  0
 26 47  1  0
 26 48  1  0
 27 49  1  0
 27 50  1  0
M  END
>  <meeko>  (5) 
{"is_sidechain": [false], "free_energy": -9.174, "intermolecular_energy": -11.271, "internal_energy": -0.202}

$$$$
cand_029_out
     RDKit          3D

 50 53  0  0  0  0  0  0  0  0999 V2000
   51.5460  152.5800   28.6000 C   0  0  0  0  0  0  0  0  0  0  0  0
   52.8520  153.3600   28.6000 C   0  0  0  0  0  0  0  0  0  0  0  0
   52.6590  154.7900   28.1480 C   0  0  0  0  0  0  0  0  0  0  0  0
   52.0020  155.6910   29.0090 C   0  0  0  0  0  0  0  0  0  0  0  0
   51.7690  157.0240   28.6420 C   0  0  0  0  0  0  0  0  0  0  0  0
   51.1030  157.9430   29.5880 C   0  0  0  0  0  0  0  0  0  0  0  0
   51.8830  159.0470   29.9110 O   0  0  0  0  0  0  0  0  0  0  0  0
   51.3860  159.9810   30.7830 C   0  0  0  0  0  0  0  0  0  0  0  0
   52.1990  161.0790   31.0680 C   0  0  0  0  0  0  0  0  0  0  0  0
   51.7540  162.0660   31.9490 C   0  0  0  0  0  0  0  0  0  0  0  0
   50.4960  161.9550   32.5460 C   0  0  0  0  0  0  0  0  0  0  0  0
   49.6860  160.8580   32.2590 C   0  0  0  0  0  0  0  0  0  0  0  0
   48.4670  160.8130   32.8780 O   0  0  0  0  0  0  0  0  0  0  0  0
   50.1330  159.8720   31.3770 C   0  0  0  0  0  0  0  0  0  0  0  0
   49.3140  158.7030   31.0490 C   0  0  0  0  0  0  0  0  0  0  0  0
   48.1990  158.5320   31.5380 O   0  0  0  0  0  0  0  0  0  0  0  0
   49.8770  157.7180   30.0970 C   0  0  0  0  0  0  0  0  0  0  0  0
   49.1000  156.6110   29.8050 O   0  0  0  0  0  0  0  0  0  0  0  0
   52.2220  157.4530   27.3910 C   0  0  0  0  0  0  0  0  0  0  0  0
   52.8680  156.5680   26.5230 C   0  0  0  0  0  0  0  0  0  0  0  0
   53.0880  155.2290   26.8790 C   0  0  0  0  0  0  0  0  0  0  0  0
   53.7400  154.3230   26.0150 N   0  0  0  0  0  0  0  0  0  0  0  0
   52.8810  153.2120   25.5770 C   0  0  0  0  0  0  0  0  0  0  0  0
   53.7430  152.1710   24.8600 C   0  0  0  0  0  0  0  0  0  0  0  0
   54.5130  152.8000   23.6990 C   0  0  0  0  0  0  0  0  0  0  0  0
   55.3120  154.0150   24.1690 C   0  0  0  0  0  0  0  0  0  0  0  0
   54.4210  155.0140   24.9090 C   0  0  0  0  0  0  0  0  0  0  0  0
   51.2312  152.3920   29.6371 H   0  0  0  0  0  0  0  0  0  0  0  0
   50.7707  153.1631   28.0815 H   0  0  0  0  0  0  0  0  0  0  0  0
   51.6917  151.6209   28.0815 H   0  0  0  0  0  0  0  0  0  0  0  0
   53.2638  153.3627   29.6200 H   0  0  0  0  0  0  0  0  0  0  0  0
   53.5393  152.8709   27.8941 H   0  0  0  0  0  0  0  0  0  0  0  0
   51.6630  155.3396   29.9947 H   0  0  0  0  0  0  0  0  0  0  0  0
   53.1900  161.1665   30.5986 H   0  0  0  0  0  0  0  0  0  0  0  0
   52.3944  162.9318   32.1733 H   0  0  0  0  0  0  0  0  0  0  0  0
   50.1455  162.7320   33.2413 H   0  0  0  0  0  0  0  0  0  0  0  0
   47.9470  160.0350   32.8330 H   0  0  0  0  0  0  0  0  0  0  0  0
   49.1520  156.2130   28.9590 H   0  0  0  0  0  0  0  0  0  0  0  0
   52.0684  158.4987   27.0863 H   0  0  0  0  0  0  0  0  0  0  0  0
   53.2105  156.9285   25.5418 H   0  0  0  0  0  0  0  0  0  0  0  0
   52.3978  152.7520   26.4516 H   0  0  0  0  0  0  0  0  0  0  0  0
   52.1055  153.5880   24.8934 H   0  0  0  0  0  0  0  0  0  0  0  0
   54.4596  151.7429   25.5764 H   0  0  0  0  0  0  0  0  0  0  0  0
   53.0833  151.3877   24.4583 H   0  0  0  0  0  0  0  0  0  0  0  0
   55.2046  152.0545   23.2796 H   0  0  0  0  0  0  0  0  0  0  0  0
   53.7919  153.1275   22.9356 H   0  0  0  0  0  0  0  0  0  0  0  0
   56.1114  153.6783   24.8455 H   0  0  0  0  0  0  0  0  0  0  0  0
   55.7349  154.5153   23.2853 H   0  0  0  0  0  0  0  0  0  0  0  0
   55.0380  155.8318   25.3096 H   0  0  0  0  0  0  0  0  0  0  0  0
   53.6749  155.4299   24.2160 H   0  0  0  0  0  0  0  0  0  0  0  0
  1  2  1  0
  2  3  1  0
  3  4  2  0
  4  5  1  0
  5  6  1  0
  6  7  1  0
  7  8  1  0
  8  9  2  0
  9 10  1  0
 10 11  2  0
 11 12  1  0
 12 13  1  0
 12 14  2  0
 14 15  1  0
 15 16  2  0
 15 17  1  0
 17 18  1  0
  5 19  2  0
 19 20  1  0
 20 21  2  0
 21 22  1  0
 22 23  1  0
 23 24  1  0
 24 25  1  0
 25 26  1  0
 26 27  1  0
 21  3  1  0
 27 22  1  0
 17  6  2  0
 14  8  1  0
  1 28  1  0
  1 29  1  0
  1 30  1  0
  2 31  1  0
  2 32  1  0
  4 33  1  0
  9 34  1  0
 10 35  1  0
 11 36  1  0
 13 37  1  0
 18 38  1  0
 19 39  1  0
 20 40  1  0
 23 41  1  0
 23 42  1  0
 24 43  1  0
 24 44  1  0
 25 45  1  0
 25 46  1  0
 26 47  1  0
 26 48  1  0
 27 49  1  0
 27 50  1  0
M  END
>  <meeko>  (6) 
{"is_sidechain": [false], "free_energy": -8.593, "intermolecular_energy": -10.688, "internal_energy": -0.069}

$$$$
