cand_030_out
     RDKit          3D

 38 40  0  0  0  0  0  0  0  0999 V2000
   50.1280  161.1200   33.0200 C   0  0  0  0  0  0  0  0  0  0  0  0
   49.9360  161.2180   31.5140 C   0  0  0  0  0  0  0  0  0  0  0  0
   50.3910  159.9630   30.8000 C   0  0  0  0  0  0  0  0  0  0  0  0
   51.7200  159.9020   30.3480 C   0  0  0  0  0  0  0  0  0  0  0  0
   52.2020  158.7760   29.6770 C   0  0  0  0  0  0  0  0  0  0  0  0
   51.3710  157.6760   29.4410 C   0  0  0  0  0  0  0  0  0  0  0  0
   51.8930  156.5020   28.7140 C   0  0  0  0  0  0  0  0  0  0  0  0
   52.4910  156.8350   27.5040 O   0  0  0  0  0  0  0  0  0  0  0  0
   53.0150  155.8330   26.7260 C   0  0  0  0  0  0  0  0  0  0  0  0
   53.5890  156.2100   25.5120 C   0  0  0  0  0  0  0  0  0  0  0  0
   54.1430  155.2400   24.6730 C   0  0  0  0  0  0  0  0  0  0  0  0
   54.1230  153.8950   25.0490 C   0  0  0  0  0  0  0  0  0  0  0  0
   53.5490  153.5220   26.2620 C   0  0  0  0  0  0  0  0  0  0  0  0
   53.5630  152.1880   26.5680 O   0  0  0  0  0  0  0  0  0  0  0  0
   52.9930  154.4930   27.0990 C   0  0  0  0  0  0  0  0  0  0  0  0
   52.3800  154.1430   28.3820 C   0  0  0  0  0  0  0  0  0  0  0  0
   52.3300  152.9840   28.7860 O   0  0  0  0  0  0  0  0  0  0  0  0
   51.8140  155.2460   29.1920 C   0  0  0  0  0  0  0  0  0  0  0  0
   51.2470  154.9100   30.4080 O   0  0  0  0  0  0  0  0  0  0  0  0
   50.0400  157.7420   29.8760 C   0  0  0  0  0  0  0  0  0  0  0  0
   49.5330  158.8720   30.5500 C   0  0  0  0  0  0  0  0  0  0  0  0
   48.0940  158.8520   31.0160 C   0  0  0  0  0  0  0  0  0  0  0  0
   47.9690  158.8280   32.3720 F   0  0  0  0  0  0  0  0  0  0  0  0
   47.3750  159.9380   30.6100 F   0  0  0  0  0  0  0  0  0  0  0  0
   49.2599  161.5631   33.5299 H   0  0  0  0  0  0  0  0  0  0  0  0
   50.2231  160.0630   33.3095 H   0  0  0  0  0  0  0  0  0  0  0  0
   51.0398  161.6629   33.3095 H   0  0  0  0  0  0  0  0  0  0  0  0
   48.8688  161.3797   31.3021 H   0  0  0  0  0  0  0  0  0  0  0  0
   50.5466  162.0566   31.1481 H   0  0  0  0  0  0  0  0  0  0  0  0
   52.3916  160.7549   30.5255 H   0  0  0  0  0  0  0  0  0  0  0  0
   53.2458  158.7540   29.3306 H   0  0  0  0  0  0  0  0  0  0  0  0
   53.6055  157.2692   25.2157 H   0  0  0  0  0  0  0  0  0  0  0  0
   54.5955  155.5359   23.7151 H   0  0  0  0  0  0  0  0  0  0  0  0
   54.5598  153.1317   24.3883 H   0  0  0  0  0  0  0  0  0  0  0  0
   54.1640  151.8610   27.2070 H   0  0  0  0  0  0  0  0  0  0  0  0
   51.4730  154.0990   30.8210 H   0  0  0  0  0  0  0  0  0  0  0  0
   49.3725  156.8885   29.6863 H   0  0  0  0  0  0  0  0  0  0  0  0
   47.7062  157.9286   30.5611 H   0  0  0  0  0  0  0  0  0  0  0  0
  1  2  1  0
  2  3  1  0
  3  4  2  0
  4  5  1  0
  5  6  2  0
  6  7  1  0
  7  8  1  0
  8  9  1  0
  9 10  2  0
 10 11  1  0
 11 12  2  0
 12 13  1  0
 13 14  1  0
 13 15  2  0
 15 16  1  0
 16 17  2  0
 16 18  1  0
 18 19  1  0
  6 20  1  0
 20 21  2  0
 21 22  1  0
 22 23  1  0
 22 24  1  0
 21  3  1  0
 18  7  2  0
 15  9  1  0
  1 25  1  0
  1 26  1  0
  1 27  1  0
  2 28  1  0
  2 29  1  0
  4 30  1  0
  5 31  1  0
 10 32  1  0
 11 33  1  0
 12 34  1  0
 14 35  1  0
 19 36  1  0
 20 37  1  0
 22 38  1  0
M  END
>  <meeko>  (1) 
{"is_sidechain": [false], "free_energy": -10.766, "intermolecular_energy": -13.284, "internal_energy": -0.381}

$$$$
cand_030_out
     RDKit          3D

 38 40  0  0  0  0  0  0  0  0999 V2000
   49.2460  160.5550   33.2970 C   0  0  0  0  0  0  0  0  0  0  0  0
   49.1180  160.7530   31.7940 C   0  0  0  0  0  0  0  0  0  0  0  0
   49.8310  159.6690   31.0160 C   0  0  0  0  0  0  0  0  0  0  0  0
   49.1360  158.4770   30.7490 C   0  0  0  0  0  0  0  0  0  0  0  0
   49.7380  157.4340   30.0410 C   0  0  0  0  0  0  0  0  0  0  0  0
   51.0510  157.5540   29.5750 C   0  0  0  0  0  0  0  0  0  0  0  0
   51.6770  156.4340   28.8430 C   0  0  0  0  0  0  0  0  0  0  0  0
   52.2510  156.8260   27.6400 O   0  0  0  0  0  0  0  0  0  0  0  0
   52.8650  155.8790   26.8590 C   0  0  0  0  0  0  0  0  0  0  0  0
   53.4120  156.3130   25.6510 C   0  0  0  0  0  0  0  0  0  0  0  0
   54.0540  155.4010   24.8100 C   0  0  0  0  0  0  0  0  0  0  0  0
   54.1490  154.0560   25.1770 C   0  0  0  0  0  0  0  0  0  0  0  0
   53.6010  153.6260   26.3840 C   0  0  0  0  0  0  0  0  0  0  0  0
   53.7300  152.2970   26.6810 O   0  0  0  0  0  0  0  0  0  0  0  0
   52.9580  154.5400   27.2240 C   0  0  0  0  0  0  0  0  0  0  0  0
   52.3700  154.1290   28.5000 C   0  0  0  0  0  0  0  0  0  0  0  0
   52.4180  152.9680   28.8960 O   0  0  0  0  0  0  0  0  0  0  0  0
   51.7050  155.1730   29.3140 C   0  0  0  0  0  0  0  0  0  0  0  0
   51.1620  154.7800   30.5230 O   0  0  0  0  0  0  0  0  0  0  0  0
   51.7520  158.7350   29.8550 C   0  0  0  0  0  0  0  0  0  0  0  0
   51.1640  159.7970   30.5730 C   0  0  0  0  0  0  0  0  0  0  0  0
   51.9760  161.0510   30.8060 C   0  0  0  0  0  0  0  0  0  0  0  0
   52.3030  161.2430   32.1140 F   0  0  0  0  0  0  0  0  0  0  0  0
   53.1640  161.0650   30.1340 F   0  0  0  0  0  0  0  0  0  0  0  0
   48.7206  161.3677   33.8200 H   0  0  0  0  0  0  0  0  0  0  0  0
   48.8007  159.5895   33.5789 H   0  0  0  0  0  0  0  0  0  0  0  0
   50.3092  160.5646   33.5789 H   0  0  0  0  0  0  0  0  0  0  0  0
   48.0517  160.7410   31.5239 H   0  0  0  0  0  0  0  0  0  0  0  0
   49.5829  161.7164   31.5378 H   0  0  0  0  0  0  0  0  0  0  0  0
   48.1009  158.3634   31.1034 H   0  0  0  0  0  0  0  0  0  0  0  0
   49.1739  156.5096   29.8482 H   0  0  0  0  0  0  0  0  0  0  0  0
   53.3378  157.3716   25.3614 H   0  0  0  0  0  0  0  0  0  0  0  0
   54.4855  155.7421   23.8574 H   0  0  0  0  0  0  0  0  0  0  0  0
   54.6552  153.3383   24.5147 H   0  0  0  0  0  0  0  0  0  0  0  0
   53.0300  151.7050   26.4900 H   0  0  0  0  0  0  0  0  0  0  0  0
   51.6950  154.3350   31.1520 H   0  0  0  0  0  0  0  0  0  0  0  0
   52.7899  158.8364   29.5049 H   0  0  0  0  0  0  0  0  0  0  0  0
   51.3064  161.8429   30.4393 H   0  0  0  0  0  0  0  0  0  0  0  0
  1  2  1  0
  2  3  1  0
  3  4  2  0
  4  5  1  0
  5  6  2  0
  6  7  1  0
  7  8  1  0
  8  9  1  0
  9 10  2  0
 10 11  1  0
 11 12  2  0
 12 13  1  0
 13 14  1  0
 13 15  2  0
 15 16  1  0
 16 17  2  0
 16 18  1  0
 18 19  1  0
  6 20  1  0
 20 21  2  0
 21 22  1  0
 22 23  1  0
 22 24  1  0
 21  3  1  0
 18  7  2  0
 15  9  1  0
  1 25  1  0
  1 26  1  0
  1 27  1  0
  2 28  1  0
  2 29  1  0
  4 30  1  0
  5 31  1  0
 10 32  1  0
 11 33  1  0
 12 34  1  0
 14 35  1  0
 19 36  1  0
 20 37  1  0
 22 38  1  0
M  END
>  <meeko>  (2) 
{"is_sidechain": [false], "free_energy": -10.736, "intermolecular_energy": -13.181, "internal_energy": -0.447}

$$$$
cand_030_out
     RDKit          3D

 38 40  0  0  0  0  0  0  0  0999 V2000
   51.9460  151.5510   26.7410 C   0  0  0  0  0  0  0  0  0  0  0  0
   53.0830  152.5610   26.6900 C   0  0  0  0  0  0  0  0  0  0  0  0
   52.7080  153.8730   27.3460 C   0  0  0  0  0  0  0  0  0  0  0  0
   52.0590  153.8290   28.5910 C   0  0  0  0  0  0  0  0  0  0  0  0
   51.6800  155.0030   29.2480 C   0  0  0  0  0  0  0  0  0  0  0  0
   51.9430  156.2540   28.6810 C   0  0  0  0  0  0  0  0  0  0  0  0
   51.5190  157.4830   29.3810 C   0  0  0  0  0  0  0  0  0  0  0  0
   50.1880  157.4480   29.7790 O   0  0  0  0  0  0  0  0  0  0  0  0
   49.6660  158.5330   30.4390 C   0  0  0  0  0  0  0  0  0  0  0  0
   48.3210  158.4630   30.8050 C   0  0  0  0  0  0  0  0  0  0  0  0
   47.7280  159.5310   31.4810 C   0  0  0  0  0  0  0  0  0  0  0  0
   48.4790  160.6680   31.7920 C   0  0  0  0  0  0  0  0  0  0  0  0
   49.8210  160.7340   31.4240 C   0  0  0  0  0  0  0  0  0  0  0  0
   50.4970  161.8760   31.7590 O   0  0  0  0  0  0  0  0  0  0  0  0
   50.4130  159.6650   30.7460 C   0  0  0  0  0  0  0  0  0  0  0  0
   51.8200  159.6950   30.3430 C   0  0  0  0  0  0  0  0  0  0  0  0
   52.5480  160.6550   30.5850 O   0  0  0  0  0  0  0  0  0  0  0  0
   52.3500  158.5140   29.6230 C   0  0  0  0  0  0  0  0  0  0  0  0
   53.6830  158.5440   29.2550 O   0  0  0  0  0  0  0  0  0  0  0  0
   52.5750  156.2990   27.4300 C   0  0  0  0  0  0  0  0  0  0  0  0
   52.9600  155.1250   26.7490 C   0  0  0  0  0  0  0  0  0  0  0  0
   53.6660  155.2590   25.4180 C   0  0  0  0  0  0  0  0  0  0  0  0
   52.9390  154.7720   24.3730 F   0  0  0  0  0  0  0  0  0  0  0  0
   53.9570  156.5490   25.0820 F   0  0  0  0  0  0  0  0  0  0  0  0
   51.6980  151.3307   27.7898 H   0  0  0  0  0  0  0  0  0  0  0  0
   51.0626  151.9676   26.2350 H   0  0  0  0  0  0  0  0  0  0  0  0
   52.2555  150.6246   26.2350 H   0  0  0  0  0  0  0  0  0  0  0  0
   53.9552  152.1400   27.2115 H   0  0  0  0  0  0  0  0  0  0  0  0
   53.3099  152.7631   25.6328 H   0  0  0  0  0  0  0  0  0  0  0  0
   51.8457  152.8553   29.0562 H   0  0  0  0  0  0  0  0  0  0  0  0
   51.1698  154.9423   30.2206 H   0  0  0  0  0  0  0  0  0  0  0  0
   47.7294  157.5682   30.5614 H   0  0  0  0  0  0  0  0  0  0  0  0
   46.6678  159.4775   31.7694 H   0  0  0  0  0  0  0  0  0  0  0  0
   48.0116  161.5085   32.3259 H   0  0  0  0  0  0  0  0  0  0  0  0
   50.4350  162.6340   31.2130 H   0  0  0  0  0  0  0  0  0  0  0  0
   53.9300  158.3370   28.3750 H   0  0  0  0  0  0  0  0  0  0  0  0
   52.7761  157.2764   26.9670 H   0  0  0  0  0  0  0  0  0  0  0  0
   54.5853  154.6753   25.5734 H   0  0  0  0  0  0  0  0  0  0  0  0
  1  2  1  0
  2  3  1  0
  3  4  2  0
  4  5  1  0
  5  6  2  0
  6  7  1  0
  7  8  1  0
  8  9  1  0
  9 10  2  0
 10 11  1  0
 11 12  2  0
 12 13  1  0
 13 14  1  0
 13 15  2  0
 15 16  1  0
 16 17  2  0
 16 18  1  0
 18 19  1  0
  6 20  1  0
 20 21  2  0
 21 22  1  0
 22 23  1  0
 22 24  1  0
 21  3  1  0
 18  7  2  0
 15  9  1  0
  1 25  1  0
  1 26  1  0
  1 27  1  0
  2 28  1  0
  2 29  1  0
  4 30  1  0
  5 31  1  0
 10 32  1  0
 11 33  1  0
 12 34  1  0
 14 35  1  0
 19 36  1  0
 20 37  1  0
 22 38  1  0
M  END
>  <meeko>  (3) 
{"is_sidechain": [false], "free_energy": -10.186, "intermolecular_energy": -12.516, "internal_energy": -0.433}

$$$$
cand_030_out
     RDKit          3D

 38 40  0  0  0  0  0  0  0  0999 V2000
   47.8080  159.9400   30.9710 C   0  0  0  0  0  0  0  0  0  0  0  0
   49.0250  159.3540   31.6720 C   0  0  0  0  0  0  0  0  0  0  0  0
   49.8620  158.5040   30.7400 C   0  0  0  0  0  0  0  0  0  0  0  0
   49.3940  157.2190   30.4140 C   0  0  0  0  0  0  0  0  0  0  0  0
   50.1220  156.3820   29.5660 C   0  0  0  0  0  0  0  0  0  0  0  0
   51.3350  156.8050   29.0140 C   0  0  0  0  0  0  0  0  0  0  0  0
   52.0990  155.8990   28.1330 C   0  0  0  0  0  0  0  0  0  0  0  0
   52.6800  156.5550   27.0540 O   0  0  0  0  0  0  0  0  0  0  0  0
   53.4170  155.8250   26.1550 C   0  0  0  0  0  0  0  0  0  0  0  0
   53.9680  156.5210   25.0770 C   0  0  0  0  0  0  0  0  0  0  0  0
   54.7310  155.8390   24.1270 C   0  0  0  0  0  0  0  0  0  0  0  0
   54.9430  154.4640   24.2530 C   0  0  0  0  0  0  0  0  0  0  0  0
   54.3920  153.7730   25.3300 C   0  0  0  0  0  0  0  0  0  0  0  0
   54.6400  152.4290   25.3930 O   0  0  0  0  0  0  0  0  0  0  0  0
   53.6280  154.4560   26.2800 C   0  0  0  0  0  0  0  0  0  0  0  0
   53.0310  153.7680   27.4260 C   0  0  0  0  0  0  0  0  0  0  0  0
   53.1780  152.5620   27.6120 O   0  0  0  0  0  0  0  0  0  0  0  0
   52.2320  154.5810   28.3720 C   0  0  0  0  0  0  0  0  0  0  0  0
   51.6820  153.9260   29.4590 O   0  0  0  0  0  0  0  0  0  0  0  0
   51.8120  158.0790   29.3520 C   0  0  0  0  0  0  0  0  0  0  0  0
   51.0960  158.9380   30.2120 C   0  0  0  0  0  0  0  0  0  0  0  0
   51.6620  160.3100   30.5020 C   0  0  0  0  0  0  0  0  0  0  0  0
   50.8600  161.3230   30.0710 F   0  0  0  0  0  0  0  0  0  0  0  0
   51.8580  160.5490   31.8310 F   0  0  0  0  0  0  0  0  0  0  0  0
   47.0844  160.2884   31.7226 H   0  0  0  0  0  0  0  0  0  0  0  0
   48.1196  160.7868   30.3418 H   0  0  0  0  0  0  0  0  0  0  0  0
   47.3403  159.1683   30.3418 H   0  0  0  0  0  0  0  0  0  0  0  0
   49.6454  160.1779   32.0545 H   0  0  0  0  0  0  0  0  0  0  0  0
   48.6688  158.7109   32.4903 H   0  0  0  0  0  0  0  0  0  0  0  0
   48.4397  156.8676   30.8334 H   0  0  0  0  0  0  0  0  0  0  0  0
   49.7371  155.3790   29.3297 H   0  0  0  0  0  0  0  0  0  0  0  0
   53.8014  157.6037   24.9765 H   0  0  0  0  0  0  0  0  0  0  0  0
   55.1661  156.3857   23.2774 H   0  0  0  0  0  0  0  0  0  0  0  0
   55.5437  153.9280   23.5034 H   0  0  0  0  0  0  0  0  0  0  0  0
   55.5180  152.1120   25.3290 H   0  0  0  0  0  0  0  0  0  0  0  0
   51.4410  154.4110   30.2240 H   0  0  0  0  0  0  0  0  0  0  0  0
   52.7716  158.4185   28.9349 H   0  0  0  0  0  0  0  0  0  0  0  0
   52.6182  160.2964   29.9585 H   0  0  0  0  0  0  0  0  0  0  0  0
  1  2  1  0
  2  3  1  0
  3  4  2  0
  4  5  1  0
  5  6  2  0
  6  7  1  0
  7  8  1  0
  8  9  1  0
  9 10  2  0
 10 11  1  0
 11 12  2  0
 12 13  1  0
 13 14  1  0
 13 15  2  0
 15 16  1  0
 16 17  2  0
 16 18  1  0
 18 19  1  0
  6 20  1  0
 20 21  2  0
 21 22  1  0
 22 23  1  0
 22 24  1  0
 21  3  1  0
 18  7  2  0
 15  9  1  0
  1 25  1  0
  1 26  1  0
  1 27  1  0
  2 28  1  0
  2 29  1  0
  4 30  1  0
  5 31  1  0
 10 32  1  0
 11 33  1  0
 12 34  1  0
 14 35  1  0
 19 36  1  0
 20 37  1  0
 22 38  1  0
M  END
>  <meeko>  (4) 
{"is_sidechain": [false], "free_energy": -10.096, "intermolecular_energy": -12.611, "internal_energy": -0.227}

$$$$
cand_030_out
     RDKit          3D

 38 40  0  0  0  0  0  0  0  0999 V2000
   52.4090  151.7920   26.3320 C   0  0  0  0  0  0  0  0  0  0  0  0
   53.4730  152.8130   26.7050 C   0  0  0  0  0  0  0  0  0  0  0  0
   52.8810  154.0250   27.3910 C   0  0  0  0  0  0  0  0  0  0  0  0
   52.1880  153.8310   28.5980 C   0  0  0  0  0  0  0  0  0  0  0  0
   51.6120  154.9060   29.2790 C   0  0  0  0  0  0  0  0  0  0  0  0
   51.7160  156.2070   28.7770 C   0  0  0  0  0  0  0  0  0  0  0  0
   51.0860  157.3290   29.5020 C   0  0  0  0  0  0  0  0  0  0  0  0
   51.9650  158.3770   29.7480 O   0  0  0  0  0  0  0  0  0  0  0  0
   51.5050  159.4820   30.4190 C   0  0  0  0  0  0  0  0  0  0  0  0
   52.4260  160.5030   30.6610 C   0  0  0  0  0  0  0  0  0  0  0  0
   52.0220  161.6570   31.3360 C   0  0  0  0  0  0  0  0  0  0  0  0
   50.7010  161.7910   31.7690 C   0  0  0  0  0  0  0  0  0  0  0  0
   49.7850  160.7700   31.5260 C   0  0  0  0  0  0  0  0  0  0  0  0
   48.5080  160.9660   31.9760 O   0  0  0  0  0  0  0  0  0  0  0  0
   50.1900  159.6150   30.8510 C   0  0  0  0  0  0  0  0  0  0  0  0
   49.2590  158.5190   30.5760 C   0  0  0  0  0  0  0  0  0  0  0  0
   48.0790  158.5640   30.9170 O   0  0  0  0  0  0  0  0  0  0  0  0
   49.7890  157.3350   29.8600 C   0  0  0  0  0  0  0  0  0  0  0  0
   48.9010  156.3090   29.5930 O   0  0  0  0  0  0  0  0  0  0  0  0
   52.3920  156.4010   27.5640 C   0  0  0  0  0  0  0  0  0  0  0  0
   52.9760  155.3280   26.8580 C   0  0  0  0  0  0  0  0  0  0  0  0
   53.7160  155.6240   25.5730 C   0  0  0  0  0  0  0  0  0  0  0  0
   53.0260  155.2540   24.4590 F   0  0  0  0  0  0  0  0  0  0  0  0
   53.9980  156.9470   25.3980 F   0  0  0  0  0  0  0  0  0  0  0  0
   51.9690  151.3698   27.2475 H   0  0  0  0  0  0  0  0  0  0  0  0
   51.6224  152.2820   25.7394 H   0  0  0  0  0  0  0  0  0  0  0  0
   52.8661  150.9859   25.7394 H   0  0  0  0  0  0  0  0  0  0  0  0
   54.1972  152.3391   27.3840 H   0  0  0  0  0  0  0  0  0  0  0  0
   53.9587  153.1512   25.7778 H   0  0  0  0  0  0  0  0  0  0  0  0
   52.0977  152.8164   29.0132 H   0  0  0  0  0  0  0  0  0  0  0  0
   51.0710  154.7273   30.2199 H   0  0  0  0  0  0  0  0  0  0  0  0
   53.4669  160.3988   30.3210 H   0  0  0  0  0  0  0  0  0  0  0  0
   52.7462  162.4626   31.5271 H   0  0  0  0  0  0  0  0  0  0  0  0
   50.3846  162.7005   32.3006 H   0  0  0  0  0  0  0  0  0  0  0  0
   48.0340  160.2570   32.3630 H   0  0  0  0  0  0  0  0  0  0  0  0
   49.2030  155.5270   29.1730 H   0  0  0  0  0  0  0  0  0  0  0  0
   52.4692  157.4178   27.1514 H   0  0  0  0  0  0  0  0  0  0  0  0
   54.6391  155.0364   25.6860 H   0  0  0  0  0  0  0  0  0  0  0  0
  1  2  1  0
  2  3  1  0
  3  4  2  0
  4  5  1  0
  5  6  2  0
  6  7  1  0
  7  8  1  0
  8  9  1  0
  9 10  2  0
 10 11  1  0
 11 12  2  0
 12 13  1  0
 13 14  1  0
 13 15  2  0
 15 16  1  0
 16 17  2  0
 16 18  1  0
 18 19  1  0
  6 20  1  0
 20 21  2  0
 21 22  1  0
 22 23  1  0
 22 24  1  0
 21  3  1  0
 18  7  2  0
 15  9  1  0
  1 25  1  0
  1 26  1  0
  1 27  1  0
  2 28  1  0
  2 29  1  0
  4 30  1  0
  5 31  1  0
 10 32  1  0
 11 33  1  0
 12 34  1  0
 14 35  1  0
 19 36  1  0
 20 37  1  0
 22 38  1  0
M  END
>  <meeko>  (5) 
{"is_sidechain": [false], "free_energy": -9.366, "intermolecular_energy": -11.472, "internal_energy": -0.464}

$$$$
cand_030_out
     RDKit          3D

 38 40  0  0  0  0  0  0  0  0999 V2000
   53.0380  154.3840   24.7260 C   0  0  0  0  0  0  0  0  0  0  0  0
   53.4820  154.1420   26.1610 C   0  0  0  0  0  0  0  0  0  0  0  0
   52.9200  155.1770   27.1120 C   0  0  0  0  0  0  0  0  0  0  0  0
   53.0280  156.5320   26.7560 C   0  0  0  0  0  0  0  0  0  0  0  0
   52.5360  157.5380   27.5910 C   0  0  0  0  0  0  0  0  0  0  0  0
   51.9180  157.2180   28.8040 C   0  0  0  0  0  0  0  0  0  0  0  0
   51.4200  158.2960   29.6830 C   0  0  0  0  0  0  0  0  0  0  0  0
   50.0840  158.1350   30.0340 O   0  0  0  0  0  0  0  0  0  0  0  0
   49.4960  159.0710   30.8460 C   0  0  0  0  0  0  0  0  0  0  0  0
   48.1500  158.8800   31.1600 C   0  0  0  0  0  0  0  0  0  0  0  0
   47.4910  159.7950   31.9840 C   0  0  0  0  0  0  0  0  0  0  0  0
   48.1780  160.8990   32.4950 C   0  0  0  0  0  0  0  0  0  0  0  0
   49.5210  161.0870   32.1810 C   0  0  0  0  0  0  0  0  0  0  0  0
   50.1330  162.1880   32.7150 O   0  0  0  0  0  0  0  0  0  0  0  0
   50.1790  160.1720   31.3540 C   0  0  0  0  0  0  0  0  0  0  0  0
   51.5910  160.3320   31.0000 C   0  0  0  0  0  0  0  0  0  0  0  0
   52.2650  161.2710   31.4150 O   0  0  0  0  0  0  0  0  0  0  0  0
   52.1930  159.3110   30.1120 C   0  0  0  0  0  0  0  0  0  0  0  0
   53.5290  159.4620   29.7910 O   0  0  0  0  0  0  0  0  0  0  0  0
   51.8250  155.8680   29.1690 C   0  0  0  0  0  0  0  0  0  0  0  0
   52.3200  154.8380   28.3430 C   0  0  0  0  0  0  0  0  0  0  0  0
   52.1530  153.4040   28.7930 C   0  0  0  0  0  0  0  0  0  0  0  0
   51.4980  153.2870   29.9810 F   0  0  0  0  0  0  0  0  0  0  0  0
   51.4440  152.6370   27.9150 F   0  0  0  0  0  0  0  0  0  0  0  0
   52.0722  154.9104   24.7249 H   0  0  0  0  0  0  0  0  0  0  0  0
   53.7903  154.9969   24.2078 H   0  0  0  0  0  0  0  0  0  0  0  0
   52.9306  153.4197   24.2078 H   0  0  0  0  0  0  0  0  0  0  0  0
   53.1371  153.1461   26.4761 H   0  0  0  0  0  0  0  0  0  0  0  0
   54.5793  154.2123   26.1930 H   0  0  0  0  0  0  0  0  0  0  0  0
   53.5077  156.8050   25.8045 H   0  0  0  0  0  0  0  0  0  0  0  0
   52.6356  158.5918   27.2916 H   0  0  0  0  0  0  0  0  0  0  0  0
   47.6088  158.0102   30.7592 H   0  0  0  0  0  0  0  0  0  0  0  0
   46.4295  159.6462   32.2310 H   0  0  0  0  0  0  0  0  0  0  0  0
   47.6583  161.6187   33.1446 H   0  0  0  0  0  0  0  0  0  0  0  0
   50.4570  162.8630   32.1520 H   0  0  0  0  0  0  0  0  0  0  0  0
   54.1670  159.5500   30.4720 H   0  0  0  0  0  0  0  0  0  0  0  0
   51.3526  155.6046   30.1268 H   0  0  0  0  0  0  0  0  0  0  0  0
   53.1925  153.0534   28.8731 H   0  0  0  0  0  0  0  0  0  0  0  0
  1  2  1  0
  2  3  1  0
  3  4  2  0
  4  5  1  0
  5  6  2  0
  6  7  1  0
  7  8  1  0
  8  9  1  0
  9 10  2  0
 10 11  1  0
 11 12  2  0
 12 13  1  0
 13 14  1  0
 13 15  2  0
 15 16  1  0
 16 17  2  0
 16 18  1  0
 18 19  1  0
  6 20  1  0
 20 21  2  0
 21 22  1  0
 22 23  1  0
 22 24  1  0
 21  3  1  0
 18  7  2  0
 15  9  1  0
  1 25  1  0
  1 26  1  0
  1 27  1  0
  2 28  1  0
  2 29  1  0
  4 30  1  0
  5 31  1  0
 10 32  1  0
 11 33  1  0
 12 34  1  0
 14 35  1  0
 19 36  1  0
 20 37  1  0
 22 38  1  0
M  END
>  <meeko>  (6) 
{"is_sidechain": [false], "free_energy": -8.952, "intermolecular_energy": -11.049, "internal_energy": -0.377}

$$$$
cand_030_out
     RDKit          3D

 38 40  0  0  0  0  0  0  0  0999 V2000
   54.9240  154.7200   24.4890 C   0  0  0  0  0  0  0  0  0  0  0  0
   53.9910  153.9170   25.3820 C   0  0  0  0  0  0  0  0  0  0  0  0
   53.2760  154.7920   26.3900 C   0  0  0  0  0  0  0  0  0  0  0  0
   53.4310  156.1850   26.2860 C   0  0  0  0  0  0  0  0  0  0  0  0
   52.8040  157.0490   27.1860 C   0  0  0  0  0  0  0  0  0  0  0  0
   52.0000  156.5460   28.2150 C   0  0  0  0  0  0  0  0  0  0  0  0
   51.3590  157.4740   29.1690 C   0  0  0  0  0  0  0  0  0  0  0  0
   52.1250  158.6060   29.4220 O   0  0  0  0  0  0  0  0  0  0  0  0
   51.6450  159.5490   30.2950 C   0  0  0  0  0  0  0  0  0  0  0  0
   52.4540  160.6600   30.5340 C   0  0  0  0  0  0  0  0  0  0  0  0
   52.0240  161.6590   31.4100 C   0  0  0  0  0  0  0  0  0  0  0  0
   50.7860  161.5460   32.0480 C   0  0  0  0  0  0  0  0  0  0  0  0
   49.9810  160.4350   31.8080 C   0  0  0  0  0  0  0  0  0  0  0  0
   48.7820  160.3880   32.4640 O   0  0  0  0  0  0  0  0  0  0  0  0
   50.4130  159.4360   30.9310 C   0  0  0  0  0  0  0  0  0  0  0  0
   49.5970  158.2520   30.6520 C   0  0  0  0  0  0  0  0  0  0  0  0
   48.4950  158.0840   31.1660 O   0  0  0  0  0  0  0  0  0  0  0  0
   50.1490  157.2480   29.7130 C   0  0  0  0  0  0  0  0  0  0  0  0
   49.3680  156.1390   29.4440 O   0  0  0  0  0  0  0  0  0  0  0  0
   51.8580  155.1560   28.3300 C   0  0  0  0  0  0  0  0  0  0  0  0
   52.4870  154.2670   27.4350 C   0  0  0  0  0  0  0  0  0  0  0  0
   52.2590  152.7820   27.6070 C   0  0  0  0  0  0  0  0  0  0  0  0
   51.5680  152.4730   28.7390 F   0  0  0  0  0  0  0  0  0  0  0  0
   51.5480  152.2180   26.5880 F   0  0  0  0  0  0  0  0  0  0  0  0
   55.6105  155.3109   25.1132 H   0  0  0  0  0  0  0  0  0  0  0  0
   55.5041  154.0342   23.8540 H   0  0  0  0  0  0  0  0  0  0  0  0
   54.3323  155.3957   23.8540 H   0  0  0  0  0  0  0  0  0  0  0  0
   53.2413  153.4157   24.7523 H   0  0  0  0  0  0  0  0  0  0  0  0
   54.5980  153.1866   25.9370 H   0  0  0  0  0  0  0  0  0  0  0  0
   54.0564  156.6013   25.4826 H   0  0  0  0  0  0  0  0  0  0  0  0
   52.9434  158.1355   27.0852 H   0  0  0  0  0  0  0  0  0  0  0  0
   53.4293  160.7491   30.0331 H   0  0  0  0  0  0  0  0  0  0  0  0
   52.6608  162.5360   31.5980 H   0  0  0  0  0  0  0  0  0  0  0  0
   50.4479  162.3328   32.7383 H   0  0  0  0  0  0  0  0  0  0  0  0
   47.9880  160.2670   31.9820 H   0  0  0  0  0  0  0  0  0  0  0  0
   48.5830  156.2310   28.9400 H   0  0  0  0  0  0  0  0  0  0  0  0
   51.2381  154.7475   29.1417 H   0  0  0  0  0  0  0  0  0  0  0  0
   53.2835  152.3831   27.6411 H   0  0  0  0  0  0  0  0  0  0  0  0
  1  2  1  0
  2  3  1  0
  3  4  2  0
  4  5  1  0
  5  6  2  0
  6  7  1  0
  7  8  1  0
  8  9  1  0
  9 10  2  0
 10 11  1  0
 11 12  2  0
 12 13  1  0
 13 14  1  0
 13 15  2  0
 15 16  1  0
 16 17  2  0
 16 18  1  0
 18 19  1  0
  6 20  1  0
 20 21  2  0
 21 22  1  0
 22 23  1  0
 22 24  1  0
 21  3  1  0
 18  7  2  0
 15  9  1  0
  1 25  1  0
  1 26  1  0
  1 27  1  0
  2 28  1  0
  2 29  1  0
  4 30  1  0
  5 31  1  0
 10 32  1  0
 11 33  1  0
 12 34  1  0
 14 35  1  0
 19 36  1  0
 20 37  1  0
 22 38  1  0
M  END
>  <meeko>  (7) 
{"is_sidechain": [false], "free_energy": -8.695, "intermolecular_energy": -10.905, "internal_energy": -0.203}

$$$$
cand_030_out
     RDKit          3D

 38 40  0  0  0  0  0  0  0  0999 V2000
   47.4970  159.6030   31.1340 C   0  0  0  0  0  0  0  0  0  0  0  0
   48.8480  159.2130   31.7160 C   0  0  0  0  0  0  0  0  0  0  0  0
   49.6630  158.3780   30.7520 C   0  0  0  0  0  0  0  0  0  0  0  0
   49.1690  157.1140   30.3870 C   0  0  0  0  0  0  0  0  0  0  0  0
   49.8740  156.2910   29.5070 C   0  0  0  0  0  0  0  0  0  0  0  0
   51.0920  156.7090   28.9610 C   0  0  0  0  0  0  0  0  0  0  0  0
   51.8330  155.8170   28.0460 C   0  0  0  0  0  0  0  0  0  0  0  0
   51.4360  154.4890   28.1430 O   0  0  0  0  0  0  0  0  0  0  0  0
   52.0490  153.5540   27.3470 C   0  0  0  0  0  0  0  0  0  0  0  0
   51.6310  152.2300   27.4890 C   0  0  0  0  0  0  0  0  0  0  0  0
   52.2130  151.2300   26.7080 C   0  0  0  0  0  0  0  0  0  0  0  0
   53.2110  151.5520   25.7840 C   0  0  0  0  0  0  0  0  0  0  0  0
   53.6250  152.8750   25.6450 C   0  0  0  0  0  0  0  0  0  0  0  0
   54.6050  153.1210   24.7230 O   0  0  0  0  0  0  0  0  0  0  0  0
   53.0430  153.8750   26.4290 C   0  0  0  0  0  0  0  0  0  0  0  0
   53.4500  155.2770   26.3130 C   0  0  0  0  0  0  0  0  0  0  0  0
   54.3140  155.6420   25.5200 O   0  0  0  0  0  0  0  0  0  0  0  0
   52.7770  156.2590   27.1940 C   0  0  0  0  0  0  0  0  0  0  0  0
   53.1570  157.5830   27.0710 O   0  0  0  0  0  0  0  0  0  0  0  0
   51.5960  157.9620   29.3370 C   0  0  0  0  0  0  0  0  0  0  0  0
   50.9010  158.8050   30.2290 C   0  0  0  0  0  0  0  0  0  0  0  0
   51.4950  160.1570   30.5590 C   0  0  0  0  0  0  0  0  0  0  0  0
   50.8070  161.1950   30.0080 F   0  0  0  0  0  0  0  0  0  0  0  0
   51.5340  160.4220   31.8970 F   0  0  0  0  0  0  0  0  0  0  0  0
   46.7904  159.8070   31.9520 H   0  0  0  0  0  0  0  0  0  0  0  0
   47.6111  160.5049   30.5146 H   0  0  0  0  0  0  0  0  0  0  0  0
   47.1129  158.7791   30.5146 H   0  0  0  0  0  0  0  0  0  0  0  0
   49.4092  160.1285   31.9545 H   0  0  0  0  0  0  0  0  0  0  0  0
   48.6672  158.6097   32.6178 H   0  0  0  0  0  0  0  0  0  0  0  0
   48.2109  156.7674   30.8016 H   0  0  0  0  0  0  0  0  0  0  0  0
   49.4677  155.3042   29.2404 H   0  0  0  0  0  0  0  0  0  0  0  0
   50.8447  151.9750   28.2147 H   0  0  0  0  0  0  0  0  0  0  0  0
   51.8853  150.1859   26.8201 H   0  0  0  0  0  0  0  0  0  0  0  0
   53.6682  150.7633   25.1684 H   0  0  0  0  0  0  0  0  0  0  0  0
   54.8690  154.0010   24.5440 H   0  0  0  0  0  0  0  0  0  0  0  0
   53.8620  157.8160   26.4980 H   0  0  0  0  0  0  0  0  0  0  0  0
   52.5595  158.2968   28.9252 H   0  0  0  0  0  0  0  0  0  0  0  0
   52.5099  160.0835   30.1412 H   0  0  0  0  0  0  0  0  0  0  0  0
  1  2  1  0
  2  3  1  0
  3  4  2  0
  4  5  1  0
  5  6  2  0
  6  7  1  0
  7  8  1  0
  8  9  1  0
  9 10  2  0
 10 11  1  0
 11 12  2  0
 12 13  1  0
 13 14  1  0
 13 15  2  0
 15 16  1  0
 16 17  2  0
 16 18  1  0
 18 19  1  0
  6 20  1  0
 20 21  2  0
 21 22  1  0
 22 23  1  0
 22 24  1  0
 21  3  1  0
 18  7  2  0
 15  9  1  0
  1 25  1  0
  1 26  1  0
  1 27  1  0
  2 28  1  0
  2 29  1  0
  4 30  1  0
  5 31  1  0
 10 32  1  0
 11 33  1  0
 12 34  1  0
 14 35  1  0
 19 36  1  0
 20 37  1  0
 22 38  1  0
M  END
>  <meeko>  (8) 
{"is_sidechain": [false], "free_energy": -8.22, "intermolecular_energy": -10.523, "internal_energy": 0.001}

$$$$
cand_030_out
     RDKit          3D

 38 40  0  0  0  0  0  0  0  0999 V2000
   50.3560  160.5790   30.0840 C   0  0  0  0  0  0  0  0  0  0  0  0
   50.9200  159.3710   30.8170 C   0  0  0  0  0  0  0  0  0  0  0  0
   51.3550  158.2790   29.8630 C   0  0  0  0  0  0  0  0  0  0  0  0
   52.6210  158.3890   29.2630 C   0  0  0  0  0  0  0  0  0  0  0  0
   53.0810  157.4190   28.3690 C   0  0  0  0  0  0  0  0  0  0  0  0
   52.2910  156.3100   28.0510 C   0  0  0  0  0  0  0  0  0  0  0  0
   52.7860  155.3050   27.0890 C   0  0  0  0  0  0  0  0  0  0  0  0
   52.3560  154.0160   27.3830 O   0  0  0  0  0  0  0  0  0  0  0  0
   52.7490  152.9850   26.5680 C   0  0  0  0  0  0  0  0  0  0  0  0
   52.3090  151.7050   26.9100 C   0  0  0  0  0  0  0  0  0  0  0  0
   52.6710  150.6110   26.1200 C   0  0  0  0  0  0  0  0  0  0  0  0
   53.4710  150.7960   24.9900 C   0  0  0  0  0  0  0  0  0  0  0  0
   53.9080  152.0750   24.6520 C   0  0  0  0  0  0  0  0  0  0  0  0
   54.6880  152.1850   23.5330 O   0  0  0  0  0  0  0  0  0  0  0  0
   53.5470  153.1690   25.4430 C   0  0  0  0  0  0  0  0  0  0  0  0
   53.9850  154.5280   25.1220 C   0  0  0  0  0  0  0  0  0  0  0  0
   54.6840  154.7740   24.1420 O   0  0  0  0  0  0  0  0  0  0  0  0
   53.5540  155.6170   26.0290 C   0  0  0  0  0  0  0  0  0  0  0  0
   53.9610  156.9000   25.7130 O   0  0  0  0  0  0  0  0  0  0  0  0
   51.0210  156.2080   28.6350 C   0  0  0  0  0  0  0  0  0  0  0  0
   50.5360  157.1790   29.5360 C   0  0  0  0  0  0  0  0  0  0  0  0
   49.1670  156.9800   30.1480 C   0  0  0  0  0  0  0  0  0  0  0  0
   48.3420  158.0510   29.9770 F   0  0  0  0  0  0  0  0  0  0  0  0
   48.4870  155.9170   29.6290 F   0  0  0  0  0  0  0  0  0  0  0  0
   50.0087  161.3229   30.8161 H   0  0  0  0  0  0  0  0  0  0  0  0
   51.1396  161.0237   29.4529 H   0  0  0  0  0  0  0  0  0  0  0  0
   49.5119  160.2638   29.4529 H   0  0  0  0  0  0  0  0  0  0  0  0
   51.7891  159.6903   31.4109 H   0  0  0  0  0  0  0  0  0  0  0  0
   50.1259  158.9632   31.4598 H   0  0  0  0  0  0  0  0  0  0  0  0
   53.2597  159.2524   29.5010 H   0  0  0  0  0  0  0  0  0  0  0  0
   54.0749  157.5288   27.9106 H   0  0  0  0  0  0  0  0  0  0  0  0
   51.6787  151.5581   27.7995 H   0  0  0  0  0  0  0  0  0  0  0  0
   52.3253  149.6018   26.3885 H   0  0  0  0  0  0  0  0  0  0  0  0
   53.7553  149.9340   24.3685 H   0  0  0  0  0  0  0  0  0  0  0  0
   55.1480  151.4370   23.2080 H   0  0  0  0  0  0  0  0  0  0  0  0
   54.8490  157.0600   25.4580 H   0  0  0  0  0  0  0  0  0  0  0  0
   50.3846  155.3466   28.3837 H   0  0  0  0  0  0  0  0  0  0  0  0
   49.3991  156.8184   31.2110 H   0  0  0  0  0  0  0  0  0  0  0  0
  1  2  1  0
  2  3  1  0
  3  4  2  0
  4  5  1  0
  5  6  2  0
  6  7  1  0
  7  8  1  0
  8  9  1  0
  9 10  2  0
 10 11  1  0
 11 12  2  0
 12 13  1  0
 13 14  1  0
 13 15  2  0
 15 16  1  0
 16 17  2  0
 16 18  1  0
 18 19  1  0
  6 20  1  0
 20 21  2  0
 21 22  1  0
 22 23  1  0
 22 24  1  0
 21  3  1  0
 18  7  2  0
 15  9  1  0
  1 25  1  0
  1 26  1  0
  1 27  1  0
  2 28  1  0
  2 29  1  0
  4 30  1  0
  5 31  1  0
 10 32  1  0
 11 33  1  0
 12 34  1  0
 14 35  1  0
 19 36  1  0
 20 37  1  0
 22 38  1  0
M  END
>  <meeko>  (9) 
{"is_sidechain": [false], "free_energy": -8.141, "intermolecular_energy": -10.327, "internal_energy": -0.099}

$$$$
