cand_056_out
     RDKit          3D

 50 53  0  0  0  0  0  0  0  0999 V2000
   55.2570  154.4170   22.7350 C   0  0  0  0  0  0  0  0  0  0  0  0
   54.2420  154.7410   23.7360 N   0  0  0  0  0  0  0  0  0  0  0  0
   53.7070  153.5050   24.3530 C   0  0  0  0  0  0  0  0  0  0  0  0
   52.6670  153.8000   25.4610 C   0  0  0  0  0  0  0  0  0  0  0  0
   53.2700  154.6720   26.4960 N   0  0  0  0  0  0  0  0  0  0  0  0
   52.4360  154.8830   27.6080 C   0  0  0  0  0  0  0  0  0  0  0  0
   52.2280  156.1660   28.1500 C   0  0  0  0  0  0  0  0  0  0  0  0
   51.3880  156.3790   29.2530 C   0  0  0  0  0  0  0  0  0  0  0  0
   51.1890  157.7260   29.8280 C   0  0  0  0  0  0  0  0  0  0  0  0
   49.9100  157.9130   30.3380 O   0  0  0  0  0  0  0  0  0  0  0  0
   49.5920  159.1210   30.9030 C   0  0  0  0  0  0  0  0  0  0  0  0
   48.3010  159.2600   31.4160 C   0  0  0  0  0  0  0  0  0  0  0  0
   47.9120  160.4660   32.0040 C   0  0  0  0  0  0  0  0  0  0  0  0
   48.8120  161.5310   32.0780 C   0  0  0  0  0  0  0  0  0  0  0  0
   50.0980  161.3900   31.5650 C   0  0  0  0  0  0  0  0  0  0  0  0
   50.9280  162.4730   31.6700 O   0  0  0  0  0  0  0  0  0  0  0  0
   50.4880  160.1830   30.9780 C   0  0  0  0  0  0  0  0  0  0  0  0
   51.8300  159.9930   30.4260 C   0  0  0  0  0  0  0  0  0  0  0  0
   52.6760  160.8850   30.4470 O   0  0  0  0  0  0  0  0  0  0  0  0
   52.1460  158.6730   29.8320 C   0  0  0  0  0  0  0  0  0  0  0  0
   53.4110  158.5070   29.3020 O   0  0  0  0  0  0  0  0  0  0  0  0
   50.7610  155.2740   29.8350 C   0  0  0  0  0  0  0  0  0  0  0  0
   50.9580  153.9930   29.3160 C   0  0  0  0  0  0  0  0  0  0  0  0
   51.7920  153.7840   28.2020 C   0  0  0  0  0  0  0  0  0  0  0  0
   51.9850  152.3890   27.6580 C   0  0  0  0  0  0  0  0  0  0  0  0
   51.4700  151.4250   28.4840 F   0  0  0  0  0  0  0  0  0  0  0  0
   53.2940  152.0410   27.4920 F   0  0  0  0  0  0  0  0  0  0  0  0
   51.3740  152.1770   26.4550 F   0  0  0  0  0  0  0  0  0  0  0  0
   53.7910  155.9290   25.9100 C   0  0  0  0  0  0  0  0  0  0  0  0
   54.8150  155.6060   24.7950 C   0  0  0  0  0  0  0  0  0  0  0  0
   56.1881  154.1198   23.2398 H   0  0  0  0  0  0  0  0  0  0  0  0
   54.9002  153.5881   22.1060 H   0  0  0  0  0  0  0  0  0  0  0  0
   55.4464  155.2993   22.1060 H   0  0  0  0  0  0  0  0  0  0  0  0
   53.4860  155.2400   23.2660 H   0  0  0  0  0  0  0  0  0  0  0  0
   53.2270  152.8989   23.5705 H   0  0  0  0  0  0  0  0  0  0  0  0
   54.5490  152.9708   24.8175 H   0  0  0  0  0  0  0  0  0  0  0  0
   51.7962  154.3063   25.0190 H   0  0  0  0  0  0  0  0  0  0  0  0
   52.3503  152.8534   25.9232 H   0  0  0  0  0  0  0  0  0  0  0  0
   52.7395  157.0269   27.6948 H   0  0  0  0  0  0  0  0  0  0  0  0
   47.5915  158.4215   31.3573 H   0  0  0  0  0  0  0  0  0  0  0  0
   46.8954  160.5768   32.4092 H   0  0  0  0  0  0  0  0  0  0  0  0
   48.5049  162.4803   32.5412 H   0  0  0  0  0  0  0  0  0  0  0  0
   51.7550  162.4730   31.2280 H   0  0  0  0  0  0  0  0  0  0  0  0
   53.9020  157.7310   29.4930 H   0  0  0  0  0  0  0  0  0  0  0  0
   50.1074  155.4146   30.7085 H   0  0  0  0  0  0  0  0  0  0  0  0
   50.4541  153.1348   29.7846 H   0  0  0  0  0  0  0  0  0  0  0  0
   52.9570  156.5056   25.4834 H   0  0  0  0  0  0  0  0  0  0  0  0
   54.2859  156.5173   26.6967 H   0  0  0  0  0  0  0  0  0  0  0  0
   55.1496  156.5492   24.3384 H   0  0  0  0  0  0  0  0  0  0  0  0
   55.6529  155.0623   25.2558 H   0  0  0  0  0  0  0  0  0  0  0  0
  1  2  1  0
  2  3  1  0
  3  4  1  0
  4  5  1  0
  5  6  1  0
  6  7  2  0
  7  8  1  0
  8  9  1  0
  9 10  1  0
 10 11  1  0
 11 12  2  0
 12 13  1  0
 13 14  2  0
 14 15  1  0
 15 16  1  0
 15 17  2  0
 17 18  1  0
 18 19  2  0
 18 20  1  0
 20 21  1  0
  8 22  2  0
 22 23  1  0
 23 24  2  0
 24 25  1  0
 25 26  1  0
 25 27  1  0
 25 28  1  0
  5 29  1  0
 29 30  1  0
 30  2  1  0
 24  6  1  0
 20  9  2  0
 17 11  1  0
  1 31  1  0
  1 32  1  0
  1 33  1  0
  2 34  1  0
  3 35  1  0
  3 36  1  0
  4 37  1  0
  4 38  1  0
  7 39  1  0
 12 40  1  0
 13 41  1  0
 14 42  1  0
 16 43  1  0
 21 44  1  0
 22 45  1  0
 23 46  1  0
 29 47  1  0
 29 48  1  0
 30 49  1  0
 30 50  1  0
M  CHG  1   2   1
M  END
>  <meeko>  (1) 
{"is_sidechain": [false], "free_energy": -8.699, "intermolecular_energy": -10.734, "internal_energy": 2.076}

$$$$
cand_056_out
     RDKit          3D

 50 53  0  0  0  0  0  0  0  0999 V2000
   53.2370  163.9010   31.9810 C   0  0  0  0  0  0  0  0  0  0  0  0
   52.9030  162.4950   31.7570 N   0  0  0  0  0  0  0  0  0  0  0  0
   51.5900  162.1700   32.3620 C   0  0  0  0  0  0  0  0  0  0  0  0
   51.1660  160.7050   32.1020 C   0  0  0  0  0  0  0  0  0  0  0  0
   51.1410  160.4400   30.6440 N   0  0  0  0  0  0  0  0  0  0  0  0
   50.6400  159.1680   30.3120 C   0  0  0  0  0  0  0  0  0  0  0  0
   51.4160  158.2200   29.6190 C   0  0  0  0  0  0  0  0  0  0  0  0
   50.9200  156.9480   29.2970 C   0  0  0  0  0  0  0  0  0  0  0  0
   51.7320  155.9640   28.5530 C   0  0  0  0  0  0  0  0  0  0  0  0
   52.1950  156.4530   27.3370 O   0  0  0  0  0  0  0  0  0  0  0  0
   52.9650  155.6390   26.5450 C   0  0  0  0  0  0  0  0  0  0  0  0
   53.4200  156.1760   25.3400 C   0  0  0  0  0  0  0  0  0  0  0  0
   54.2070  155.4000   24.4860 C   0  0  0  0  0  0  0  0  0  0  0  0
   54.5380  154.0890   24.8360 C   0  0  0  0  0  0  0  0  0  0  0  0
   54.0820  153.5570   26.0390 C   0  0  0  0  0  0  0  0  0  0  0  0
   54.4420  152.2670   26.3200 O   0  0  0  0  0  0  0  0  0  0  0  0
   53.2950  154.3330   26.8940 C   0  0  0  0  0  0  0  0  0  0  0  0
   52.7950  153.8120   28.1670 C   0  0  0  0  0  0  0  0  0  0  0  0
   53.0370  152.6670   28.5420 O   0  0  0  0  0  0  0  0  0  0  0  0
   51.9760  154.7190   29.0040 C   0  0  0  0  0  0  0  0  0  0  0  0
   51.4970  154.2140   30.1980 O   0  0  0  0  0  0  0  0  0  0  0  0
   49.6070  156.6340   29.6620 C   0  0  0  0  0  0  0  0  0  0  0  0
   48.8200  157.5620   30.3460 C   0  0  0  0  0  0  0  0  0  0  0  0
   49.3240  158.8330   30.6790 C   0  0  0  0  0  0  0  0  0  0  0  0
   48.4540  159.8170   31.4220 C   0  0  0  0  0  0  0  0  0  0  0  0
   47.1300  159.4680   31.4030 F   0  0  0  0  0  0  0  0  0  0  0  0
   48.4870  161.0790   30.9030 F   0  0  0  0  0  0  0  0  0  0  0  0
   48.7630  159.9360   32.7460 F   0  0  0  0  0  0  0  0  0  0  0  0
   52.4510  160.7330   30.0160 C   0  0  0  0  0  0  0  0  0  0  0  0
   52.8580  162.1980   30.3060 C   0  0  0  0  0  0  0  0  0  0  0  0
   53.2840  164.0990   33.0620 H   0  0  0  0  0  0  0  0  0  0  0  0
   54.2129  164.1232   31.5247 H   0  0  0  0  0  0  0  0  0  0  0  0
   52.4653  164.5384   31.5247 H   0  0  0  0  0  0  0  0  0  0  0  0
   53.6280  161.9270   32.1960 H   0  0  0  0  0  0  0  0  0  0  0  0
   51.6519  162.3321   33.4482 H   0  0  0  0  0  0  0  0  0  0  0  0
   50.8366  162.8240   31.8986 H   0  0  0  0  0  0  0  0  0  0  0  0
   51.8846  160.0259   32.5842 H   0  0  0  0  0  0  0  0  0  0  0  0
   50.1615  160.5386   32.5183 H   0  0  0  0  0  0  0  0  0  0  0  0
   52.4414  158.4843   29.3212 H   0  0  0  0  0  0  0  0  0  0  0  0
   53.1594  157.2082   25.0633 H   0  0  0  0  0  0  0  0  0  0  0  0
   54.5668  155.8221   23.5361 H   0  0  0  0  0  0  0  0  0  0  0  0
   55.1575  153.4783   24.1627 H   0  0  0  0  0  0  0  0  0  0  0  0
   54.9190  151.7660   25.6880 H   0  0  0  0  0  0  0  0  0  0  0  0
   51.4560  154.7630   30.9560 H   0  0  0  0  0  0  0  0  0  0  0  0
   49.1911  155.6478   29.4080 H   0  0  0  0  0  0  0  0  0  0  0  0
   47.7908  157.2959   30.6289 H   0  0  0  0  0  0  0  0  0  0  0  0
   53.2127  160.0545   30.4275 H   0  0  0  0  0  0  0  0  0  0  0  0
   52.3721  160.5874   28.9285 H   0  0  0  0  0  0  0  0  0  0  0  0
   53.8546  162.3793   29.8772 H   0  0  0  0  0  0  0  0  0  0  0  0
   52.0992  162.8529   29.8529 H   0  0  0  0  0  0  0  0  0  0  0  0
  1  2  1  0
  2  3  1  0
  3  4  1  0
  4  5  1  0
  5  6  1  0
  6  7  2  0
  7  8  1  0
  8  9  1  0
  9 10  1  0
 10 11  1  0
 11 12  2  0
 12 13  1  0
 13 14  2  0
 14 15  1  0
 15 16  1  0
 15 17  2  0
 17 18  1  0
 18 19  2  0
 18 20  1  0
 20 21  1  0
  8 22  2  0
 22 23  1  0
 23 24  2  0
 24 25  1  0
 25 26  1  0
 25 27  1  0
 25 28  1  0
  5 29  1  0
 29 30  1  0
 30  2  1  0
 24  6  1  0
 20  9  2  0
 17 11  1  0
  1 31  1  0
  1 32  1  0
  1 33  1  0
  2 34  1  0
  3 35  1  0
  3 36  1  0
  4 37  1  0
  4 38  1  0
  7 39  1  0
 12 40  1  0
 13 41  1  0
 14 42  1  0
 16 43  1  0
 21 44  1  0
 22 45  1  0
 23 46  1  0
 29 47  1  0
 29 48  1  0
 30 49  1  0
 30 50  1  0
M  CHG  1   2   1
M  END
>  <meeko>  (2) 
{"is_sidechain": [false], "free_energy": -8.605, "intermolecular_energy": -9.371, "internal_energy": 0.83}

$$$$
cand_056_out
     RDKit          3D

 50 53  0  0  0  0  0  0  0  0999 V2000
   46.1200  160.2590   31.9070 C   0  0  0  0  0  0  0  0  0  0  0  0
   47.2120  159.6660   31.1360 N   0  0  0  0  0  0  0  0  0  0  0  0
   48.0540  160.7240   30.5290 C   0  0  0  0  0  0  0  0  0  0  0  0
   49.2590  160.1450   29.7490 C   0  0  0  0  0  0  0  0  0  0  0  0
   50.0730  159.2890   30.6440 N   0  0  0  0  0  0  0  0  0  0  0  0
   51.2620  158.8270   30.0510 C   0  0  0  0  0  0  0  0  0  0  0  0
   51.3370  157.5730   29.4150 C   0  0  0  0  0  0  0  0  0  0  0  0
   52.5190  157.1150   28.8150 C   0  0  0  0  0  0  0  0  0  0  0  0
   52.5970  155.7900   28.1660 C   0  0  0  0  0  0  0  0  0  0  0  0
   53.1590  155.8410   26.8960 O   0  0  0  0  0  0  0  0  0  0  0  0
   53.2920  154.6780   26.1830 C   0  0  0  0  0  0  0  0  0  0  0  0
   53.8750  154.7740   24.9180 C   0  0  0  0  0  0  0  0  0  0  0  0
   54.0380  153.6270   24.1370 C   0  0  0  0  0  0  0  0  0  0  0  0
   53.6180  152.3860   24.6210 C   0  0  0  0  0  0  0  0  0  0  0  0
   53.0370  152.2930   25.8820 C   0  0  0  0  0  0  0  0  0  0  0  0
   52.6470  151.0480   26.2940 O   0  0  0  0  0  0  0  0  0  0  0  0
   52.8740  153.4410   26.6630 C   0  0  0  0  0  0  0  0  0  0  0  0
   52.2670  153.3870   27.9940 C   0  0  0  0  0  0  0  0  0  0  0  0
   51.8660  152.3350   28.4860 O   0  0  0  0  0  0  0  0  0  0  0  0
   52.1480  154.6600   28.7440 C   0  0  0  0  0  0  0  0  0  0  0  0
   51.5620  154.6020   29.9940 O   0  0  0  0  0  0  0  0  0  0  0  0
   53.6550  157.9290   28.8750 C   0  0  0  0  0  0  0  0  0  0  0  0
   53.6010  159.1740   29.5050 C   0  0  0  0  0  0  0  0  0  0  0  0
   52.4100  159.6360   30.0960 C   0  0  0  0  0  0  0  0  0  0  0  0
   52.3780  160.9870   30.7670 C   0  0  0  0  0  0  0  0  0  0  0  0
   53.6250  161.5370   30.9030 F   0  0  0  0  0  0  0  0  0  0  0  0
   51.8730  160.9580   32.0350 F   0  0  0  0  0  0  0  0  0  0  0  0
   51.6580  161.9240   30.0850 F   0  0  0  0  0  0  0  0  0  0  0  0
   49.2610  158.2060   31.2450 C   0  0  0  0  0  0  0  0  0  0  0  0
   48.0550  158.8110   32.0040 C   0  0  0  0  0  0  0  0  0  0  0  0
   46.3267  160.1468   32.9816 H   0  0  0  0  0  0  0  0  0  0  0  0
   46.0346  161.3274   31.6597 H   0  0  0  0  0  0  0  0  0  0  0  0
   45.1773  159.7489   31.6597 H   0  0  0  0  0  0  0  0  0  0  0  0
   46.8010  159.0960   30.3970 H   0  0  0  0  0  0  0  0  0  0  0  0
   47.4354  161.3136   29.8364 H   0  0  0  0  0  0  0  0  0  0  0  0
   48.4506  161.3460   31.3450 H   0  0  0  0  0  0  0  0  0  0  0  0
   48.8921  159.5443   28.9037 H   0  0  0  0  0  0  0  0  0  0  0  0
   49.8800  160.9721   29.3745 H   0  0  0  0  0  0  0  0  0  0  0  0
   50.4422  156.9338   29.3880 H   0  0  0  0  0  0  0  0  0  0  0  0
   54.2056  155.7514   24.5367 H   0  0  0  0  0  0  0  0  0  0  0  0
   54.4974  153.7014   23.1403 H   0  0  0  0  0  0  0  0  0  0  0  0
   53.7464  151.4831   24.0060 H   0  0  0  0  0  0  0  0  0  0  0  0
   51.7770  150.9120   26.6140 H   0  0  0  0  0  0  0  0  0  0  0  0
   50.7960  155.1100   30.1770 H   0  0  0  0  0  0  0  0  0  0  0  0
   54.5973  157.5860   28.4228 H   0  0  0  0  0  0  0  0  0  0  0  0
   54.5027  159.8031   29.5399 H   0  0  0  0  0  0  0  0  0  0  0  0
   48.8947  157.5404   30.4495 H   0  0  0  0  0  0  0  0  0  0  0  0
   49.8833  157.6353   31.9500 H   0  0  0  0  0  0  0  0  0  0  0  0
   47.4377  157.9901   32.3978 H   0  0  0  0  0  0  0  0  0  0  0  0
   48.4508  159.4421   32.8134 H   0  0  0  0  0  0  0  0  0  0  0  0
  1  2  1  0
  2  3  1  0
  3  4  1  0
  4  5  1  0
  5  6  1  0
  6  7  2  0
  7  8  1  0
  8  9  1  0
  9 10  1  0
 10 11  1  0
 11 12  2  0
 12 13  1  0
 13 14  2  0
 14 15  1  0
 15 16  1  0
 15 17  2  0
 17 18  1  0
 18 19  2  0
 18 20  1  0
 20 21  1  0
  8 22  2  0
 22 23  1  0
 23 24  2  0
 24 25  1  0
 25 26  1  0
 25 27  1  0
 25 28  1  0
  5 29  1  0
 29 30  1  0
 30  2  1  0
 24  6  1  0
 20  9  2  0
 17 11  1  0
  1 31  1  0
  1 32  1  0
  1 33  1  0
  2 34  1  0
  3 35  1  0
  3 36  1  0
  4 37  1  0
  4 38  1  0
  7 39  1  0
 12 40  1  0
 13 41  1  0
 14 42  1  0
 16 43  1  0
 21 44  1  0
 22 45  1  0
 23 46  1  0
 29 47  1  0
 29 48  1  0
 30 49  1  0
 30 50  1  0
M  CHG  1   2   1
M  END
>  <meeko>  (3) 
{"is_sidechain": [false], "free_energy": -8.52, "intermolecular_energy": -8.237, "internal_energy": -0.199}

$$$$
cand_056_out
     RDKit          3D

 50 53  0  0  0  0  0  0  0  0999 V2000
   53.0690  148.7190   25.3910 C   0  0  0  0  0  0  0  0  0  0  0  0
   53.2970  150.0660   25.9130 N   0  0  0  0  0  0  0  0  0  0  0  0
   54.1680  150.8380   24.9960 C   0  0  0  0  0  0  0  0  0  0  0  0
   54.3930  152.2910   25.4790 C   0  0  0  0  0  0  0  0  0  0  0  0
   53.0880  152.9730   25.6440 N   0  0  0  0  0  0  0  0  0  0  0  0
   53.2030  154.3400   25.9550 C   0  0  0  0  0  0  0  0  0  0  0  0
   52.4450  154.9370   26.9800 C   0  0  0  0  0  0  0  0  0  0  0  0
   52.5670  156.2980   27.2970 C   0  0  0  0  0  0  0  0  0  0  0  0
   51.7540  156.9220   28.3620 C   0  0  0  0  0  0  0  0  0  0  0  0
   52.2610  158.1460   28.7820 O   0  0  0  0  0  0  0  0  0  0  0  0
   51.6000  158.8340   29.7670 C   0  0  0  0  0  0  0  0  0  0  0  0
   52.1360  160.0660   30.1480 C   0  0  0  0  0  0  0  0  0  0  0  0
   51.5130  160.8160   31.1470 C   0  0  0  0  0  0  0  0  0  0  0  0
   50.3560  160.3360   31.7660 C   0  0  0  0  0  0  0  0  0  0  0  0
   49.8240  159.1080   31.3840 C   0  0  0  0  0  0  0  0  0  0  0  0
   48.6910  158.6970   32.0310 O   0  0  0  0  0  0  0  0  0  0  0  0
   50.4470  158.3560   30.3840 C   0  0  0  0  0  0  0  0  0  0  0  0
   49.9220  157.0600   29.9540 C   0  0  0  0  0  0  0  0  0  0  0  0
   48.9130  156.5670   30.4540 O   0  0  0  0  0  0  0  0  0  0  0  0
   50.6520  156.3470   28.8800 C   0  0  0  0  0  0  0  0  0  0  0  0
   50.1560  155.1180   28.4890 O   0  0  0  0  0  0  0  0  0  0  0  0
   53.4560  157.0780   26.5510 C   0  0  0  0  0  0  0  0  0  0  0  0
   54.2130  156.5060   25.5280 C   0  0  0  0  0  0  0  0  0  0  0  0
   54.0980  155.1370   25.2200 C   0  0  0  0  0  0  0  0  0  0  0  0
   54.9310  154.5430   24.1110 C   0  0  0  0  0  0  0  0  0  0  0  0
   55.4770  155.4960   23.2940 F   0  0  0  0  0  0  0  0  0  0  0  0
   54.2260  153.7290   23.2710 F   0  0  0  0  0  0  0  0  0  0  0  0
   55.9960  153.8120   24.5530 F   0  0  0  0  0  0  0  0  0  0  0  0
   52.2040  152.2350   26.5780 C   0  0  0  0  0  0  0  0  0  0  0  0
   52.0110  150.7820   26.0810 C   0  0  0  0  0  0  0  0  0  0  0  0
   52.9501  148.0163   26.2289 H   0  0  0  0  0  0  0  0  0  0  0  0
   52.1572  148.7137   24.7757 H   0  0  0  0  0  0  0  0  0  0  0  0
   53.9283  148.4139   24.7757 H   0  0  0  0  0  0  0  0  0  0  0  0
   53.7550  149.9770   26.8200 H   0  0  0  0  0  0  0  0  0  0  0  0
   55.1432  150.3337   24.9270 H   0  0  0  0  0  0  0  0  0  0  0  0
   53.6675  150.8837   24.0175 H   0  0  0  0  0  0  0  0  0  0  0  0
   54.9224  152.2775   26.4431 H   0  0  0  0  0  0  0  0  0  0  0  0
   54.9940  152.8325   24.7336 H   0  0  0  0  0  0  0  0  0  0  0  0
   51.7360  154.3179   27.5492 H   0  0  0  0  0  0  0  0  0  0  0  0
   53.0472  160.4446   29.6619 H   0  0  0  0  0  0  0  0  0  0  0  0
   51.9338  161.7869   31.4475 H   0  0  0  0  0  0  0  0  0  0  0  0
   49.8665  160.9275   32.5537 H   0  0  0  0  0  0  0  0  0  0  0  0
   48.6380  157.8270   32.3760 H   0  0  0  0  0  0  0  0  0  0  0  0
   49.8920  154.4920   29.1350 H   0  0  0  0  0  0  0  0  0  0  0  0
   53.5593  158.1505   26.7723 H   0  0  0  0  0  0  0  0  0  0  0  0
   54.9100  157.1339   24.9536 H   0  0  0  0  0  0  0  0  0  0  0  0
   52.6607  152.2209   27.5786 H   0  0  0  0  0  0  0  0  0  0  0  0
   51.2257  152.7358   26.6237 H   0  0  0  0  0  0  0  0  0  0  0  0
   51.3966  150.2372   26.8129 H   0  0  0  0  0  0  0  0  0  0  0  0
   51.5216  150.8269   25.0969 H   0  0  0  0  0  0  0  0  0  0  0  0
  1  2  1  0
  2  3  1  0
  3  4  1  0
  4  5  1  0
  5  6  1  0
  6  7  2  0
  7  8  1  0
  8  9  1  0
  9 10  1  0
 10 11  1  0
 11 12  2  0
 12 13  1  0
 13 14  2  0
 14 15  1  0
 15 16  1  0
 15 17  2  0
 17 18  1  0
 18 19  2  0
 18 20  1  0
 20 21  1  0
  8 22  2  0
 22 23  1  0
 23 24  2  0
 24 25  1  0
 25 26  1  0
 25 27  1  0
 25 28  1  0
  5 29  1  0
 29 30  1  0
 30  2  1  0
 24  6  1  0
 20  9  2  0
 17 11  1  0
  1 31  1  0
  1 32  1  0
  1 33  1  0
  2 34  1  0
  3 35  1  0
  3 36  1  0
  4 37  1  0
  4 38  1  0
  7 39  1  0
 12 40  1  0
 13 41  1  0
 14 42  1  0
 16 43  1  0
 21 44  1  0
 22 45  1  0
 23 46  1  0
 29 47  1  0
 29 48  1  0
 30 49  1  0
 30 50  1  0
M  CHG  1   2   1
M  END
>  <meeko>  (4) 
{"is_sidechain": [false], "free_energy": -7.536, "intermolecular_energy": -9.469, "internal_energy": 2.246}

$$$$
cand_056_out
     RDKit          3D

 50 53  0  0  0  0  0  0  0  0999 V2000
   53.4280  163.4080   31.0390 C   0  0  0  0  0  0  0  0  0  0  0  0
   52.9230  162.2170   30.3560 N   0  0  0  0  0  0  0  0  0  0  0  0
   53.6540  161.0100   30.8060 C   0  0  0  0  0  0  0  0  0  0  0  0
   53.1150  159.7150   30.1520 C   0  0  0  0  0  0  0  0  0  0  0  0
   51.6680  159.5740   30.4340 N   0  0  0  0  0  0  0  0  0  0  0  0
   51.1240  158.3570   29.9870 C   0  0  0  0  0  0  0  0  0  0  0  0
   51.8220  157.5070   29.1080 C   0  0  0  0  0  0  0  0  0  0  0  0
   51.2840  156.2880   28.6700 C   0  0  0  0  0  0  0  0  0  0  0  0
   52.0150  155.4100   27.7320 C   0  0  0  0  0  0  0  0  0  0  0  0
   51.6680  154.0710   27.8630 O   0  0  0  0  0  0  0  0  0  0  0  0
   52.2720  153.1470   27.0500 C   0  0  0  0  0  0  0  0  0  0  0  0
   51.8830  151.8160   27.2050 C   0  0  0  0  0  0  0  0  0  0  0  0
   52.4620  150.8240   26.4100 C   0  0  0  0  0  0  0  0  0  0  0  0
   53.4280  151.1640   25.4600 C   0  0  0  0  0  0  0  0  0  0  0  0
   53.8140  152.4920   25.3070 C   0  0  0  0  0  0  0  0  0  0  0  0
   54.7660  152.7540   24.3600 O   0  0  0  0  0  0  0  0  0  0  0  0
   53.2350  153.4850   26.1030 C   0  0  0  0  0  0  0  0  0  0  0  0
   53.6130  154.8920   25.9760 C   0  0  0  0  0  0  0  0  0  0  0  0
   54.4610  155.2690   25.1680 O   0  0  0  0  0  0  0  0  0  0  0  0
   52.9340  155.8670   26.8610 C   0  0  0  0  0  0  0  0  0  0  0  0
   53.3070  157.1920   26.7420 O   0  0  0  0  0  0  0  0  0  0  0  0
   50.0070  155.9280   29.1100 C   0  0  0  0  0  0  0  0  0  0  0  0
   49.2970  156.7580   29.9790 C   0  0  0  0  0  0  0  0  0  0  0  0
   49.8440  157.9750   30.4260 C   0  0  0  0  0  0  0  0  0  0  0  0
   49.0560  158.8540   31.3680 C   0  0  0  0  0  0  0  0  0  0  0  0
   48.1270  158.1520   32.0890 F   0  0  0  0  0  0  0  0  0  0  0  0
   48.3400  159.8300   30.7370 F   0  0  0  0  0  0  0  0  0  0  0  0
   49.8230  159.4810   32.3060 F   0  0  0  0  0  0  0  0  0  0  0  0
   50.9070  160.7580   29.9710 C   0  0  0  0  0  0  0  0  0  0  0  0
   51.4760  162.0400   30.6260 C   0  0  0  0  0  0  0  0  0  0  0  0
   53.3656  163.2607   32.1273 H   0  0  0  0  0  0  0  0  0  0  0  0
   54.4760  163.5788   30.7516 H   0  0  0  0  0  0  0  0  0  0  0  0
   52.8222  164.2800   30.7516 H   0  0  0  0  0  0  0  0  0  0  0  0
   53.0660  162.3460   29.3540 H   0  0  0  0  0  0  0  0  0  0  0  0
   54.7164  161.1223   30.5438 H   0  0  0  0  0  0  0  0  0  0  0  0
   53.5143  160.9195   31.8933 H   0  0  0  0  0  0  0  0  0  0  0  0
   53.2719  159.7628   29.0643 H   0  0  0  0  0  0  0  0  0  0  0  0
   53.6514  158.8488   30.5667 H   0  0  0  0  0  0  0  0  0  0  0  0
   52.8191  157.8080   28.7542 H   0  0  0  0  0  0  0  0  0  0  0  0
   51.1214  151.5482   27.9522 H   0  0  0  0  0  0  0  0  0  0  0  0
   52.1570  149.7742   26.5322 H   0  0  0  0  0  0  0  0  0  0  0  0
   53.8831  150.3827   24.8335 H   0  0  0  0  0  0  0  0  0  0  0  0
   55.0820  153.6290   24.2430 H   0  0  0  0  0  0  0  0  0  0  0  0
   54.0120  157.4320   26.1730 H   0  0  0  0  0  0  0  0  0  0  0  0
   49.5582  154.9834   28.7688 H   0  0  0  0  0  0  0  0  0  0  0  0
   48.2954  156.4564   30.3193 H   0  0  0  0  0  0  0  0  0  0  0  0
   50.9899  160.8398   28.8772 H   0  0  0  0  0  0  0  0  0  0  0  0
   49.8509  160.6438   30.2567 H   0  0  0  0  0  0  0  0  0  0  0  0
   50.9333  162.9105   30.2289 H   0  0  0  0  0  0  0  0  0  0  0  0
   51.3464  161.9469   31.7144 H   0  0  0  0  0  0  0  0  0  0  0  0
  1  2  1  0
  2  3  1  0
  3  4  1  0
  4  5  1  0
  5  6  1  0
  6  7  2  0
  7  8  1  0
  8  9  1  0
  9 10  1  0
 10 11  1  0
 11 12  2  0
 12 13  1  0
 13 14  2  0
 14 15  1  0
 15 16  1  0
 15 17  2  0
 17 18  1  0
 18 19  2  0
 18 20  1  0
 20 21  1  0
  8 22  2  0
 22 23  1  0
 23 24  2  0
 24 25  1  0
 25 26  1  0
 25 27  1  0
 25 28  1  0
  5 29  1  0
 29 30  1  0
 30  2  1  0
 24  6  1  0
 20  9  2  0
 17 11  1  0
  1 31  1  0
  1 32  1  0
  1 33  1  0
  2 34  1  0
  3 35  1  0
  3 36  1  0
  4 37  1  0
  4 38  1  0
  7 39  1  0
 12 40  1  0
 13 41  1  0
 14 42  1  0
 16 43  1  0
 21 44  1  0
 22 45  1  0
 23 46  1  0
 29 47  1  0
 29 48  1  0
 30 49  1  0
 30 50  1  0
M  CHG  1   2   1
M  END
>  <meeko>  (5) 
{"is_sidechain": [false], "free_energy": -6.503, "intermolecular_energy": -6.911, "internal_energy": 0.963}

$$$$
cand_056_out
     RDKit          3D

 50 53  0  0  0  0  0  0  0  0999 V2000
   55.1840  155.2630   23.0950 C   0  0  0  0  0  0  0  0  0  0  0  0
   54.1270  155.4900   24.0790 N   0  0  0  0  0  0  0  0  0  0  0  0
   53.6090  154.1990   24.5920 C   0  0  0  0  0  0  0  0  0  0  0  0
   52.5250  154.3880   25.6800 C   0  0  0  0  0  0  0  0  0  0  0  0
   53.0660  155.2040   26.7930 N   0  0  0  0  0  0  0  0  0  0  0  0
   52.1890  155.3160   27.8860 C   0  0  0  0  0  0  0  0  0  0  0  0
   51.7860  156.5660   28.3920 C   0  0  0  0  0  0  0  0  0  0  0  0
   50.9040  156.6780   29.4770 C   0  0  0  0  0  0  0  0  0  0  0  0
   50.4990  157.9930   30.0160 C   0  0  0  0  0  0  0  0  0  0  0  0
   51.5820  158.8030   30.3380 O   0  0  0  0  0  0  0  0  0  0  0  0
   51.3450  160.0530   30.8480 C   0  0  0  0  0  0  0  0  0  0  0  0
   52.4610  160.8380   31.1430 C   0  0  0  0  0  0  0  0  0  0  0  0
   52.2910  162.1210   31.6670 C   0  0  0  0  0  0  0  0  0  0  0  0
   51.0060  162.6190   31.8960 C   0  0  0  0  0  0  0  0  0  0  0  0
   49.8950  161.8340   31.6000 C   0  0  0  0  0  0  0  0  0  0  0  0
   48.6670  162.3830   31.8500 O   0  0  0  0  0  0  0  0  0  0  0  0
   50.0660  160.5500   31.0750 C   0  0  0  0  0  0  0  0  0  0  0  0
   48.9250  159.6930   30.7520 C   0  0  0  0  0  0  0  0  0  0  0  0
   47.7640  160.0560   30.9310 O   0  0  0  0  0  0  0  0  0  0  0  0
   49.2130  158.3520   30.1930 C   0  0  0  0  0  0  0  0  0  0  0  0
   48.1300  157.5440   29.9020 O   0  0  0  0  0  0  0  0  0  0  0  0
   50.4350  155.5050   30.0770 C   0  0  0  0  0  0  0  0  0  0  0  0
   50.8260  154.2560   29.5930 C   0  0  0  0  0  0  0  0  0  0  0  0
   51.7020  154.1460   28.4970 C   0  0  0  0  0  0  0  0  0  0  0  0
   52.1080  152.7840   27.9900 C   0  0  0  0  0  0  0  0  0  0  0  0
   51.6960  151.7710   28.8160 F   0  0  0  0  0  0  0  0  0  0  0  0
   53.4590  152.6170   27.8850 F   0  0  0  0  0  0  0  0  0  0  0  0
   51.5830  152.4720   26.7700 F   0  0  0  0  0  0  0  0  0  0  0  0
   53.5680  156.5130   26.3110 C   0  0  0  0  0  0  0  0  0  0  0  0
   54.6370  156.2950   25.2130 C   0  0  0  0  0  0  0  0  0  0  0  0
   56.1316  155.0595   23.6152 H   0  0  0  0  0  0  0  0  0  0  0  0
   54.9193  154.4012   22.4647 H   0  0  0  0  0  0  0  0  0  0  0  0
   55.2964  156.1575   22.4647 H   0  0  0  0  0  0  0  0  0  0  0  0
   53.3720  155.9970   23.6170 H   0  0  0  0  0  0  0  0  0  0  0  0
   53.1736  153.6351   23.7539 H   0  0  0  0  0  0  0  0  0  0  0  0
   54.4509  153.6577   25.0483 H   0  0  0  0  0  0  0  0  0  0  0  0
   51.6542  154.8986   25.2428 H   0  0  0  0  0  0  0  0  0  0  0  0
   52.2228  153.4032   26.0658 H   0  0  0  0  0  0  0  0  0  0  0  0
   52.1741  157.4821   27.9228 H   0  0  0  0  0  0  0  0  0  0  0  0
   53.4730  160.4463   30.9629 H   0  0  0  0  0  0  0  0  0  0  0  0
   53.1698  162.7403   31.8997 H   0  0  0  0  0  0  0  0  0  0  0  0
   50.8723  163.6295   32.3094 H   0  0  0  0  0  0  0  0  0  0  0  0
   48.6030  163.2580   32.1790 H   0  0  0  0  0  0  0  0  0  0  0  0
   47.4280  157.4610   30.5180 H   0  0  0  0  0  0  0  0  0  0  0  0
   49.7524  155.5675   30.9373 H   0  0  0  0  0  0  0  0  0  0  0  0
   50.4440  153.3441   30.0751 H   0  0  0  0  0  0  0  0  0  0  0  0
   52.7314  157.0939   25.8955 H   0  0  0  0  0  0  0  0  0  0  0  0
   54.0189  157.0601   27.1521 H   0  0  0  0  0  0  0  0  0  0  0  0
   54.9583  157.2761   24.8332 H   0  0  0  0  0  0  0  0  0  0  0  0
   55.4743  155.7435   25.6655 H   0  0  0  0  0  0  0  0  0  0  0  0
  1  2  1  0
  2  3  1  0
  3  4  1  0
  4  5  1  0
  5  6  1  0
  6  7  2  0
  7  8  1  0
  8  9  1  0
  9 10  1  0
 10 11  1  0
 11 12  2  0
 12 13  1  0
 13 14  2  0
 14 15  1  0
 15 16  1  0
 15 17  2  0
 17 18  1  0
 18 19  2  0
 18 20  1  0
 20 21  1  0
  8 22  2  0
 22 23  1  0
 23 24  2  0
 24 25  1  0
 25 26  1  0
 25 27  1  0
 25 28  1  0
  5 29  1  0
 29 30  1  0
 30  2  1  0
 24  6  1  0
 20  9  2  0
 17 11  1  0
  1 31  1  0
  1 32  1  0
  1 33  1  0
  2 34  1  0
  3 35  1  0
  3 36  1  0
  4 37  1  0
  4 38  1  0
  7 39  1  0
 12 40  1  0
 13 41  1  0
 14 42  1  0
 16 43  1  0
 21 44  1  0
 22 45  1  0
 23 46  1  0
 29 47  1  0
 29 48  1  0
 30 49  1  0
 30 50  1  0
M  CHG  1   2   1
M  END
>  <meeko>  (6) 
{"is_sidechain": [false], "free_energy": -5.875, "intermolecular_energy": -6.42, "internal_energy": 1.247}

$$$$
