cand_001_out
     RDKit          3D

 45 48  0  0  0  0  0  0  0  0999 V2000
   20.3530  -25.5730   41.3260 C   0  0  0  0  0  0  0  0  0  0  0  0
   20.2210  -26.9010   40.6300 C   0  0  0  0  0  0  0  0  0  0  0  0
   18.9670  -27.2730   40.1240 C   0  0  0  0  0  0  0  0  0  0  0  0
   18.7950  -28.4810   39.4420 C   0  0  0  0  0  0  0  0  0  0  0  0
   19.8750  -29.3450   39.2380 C   0  0  0  0  0  0  0  0  0  0  0  0
   19.6710  -30.6250   38.5270 C   0  0  0  0  0  0  0  0  0  0  0  0
   19.2510  -31.6490   39.3690 O   0  0  0  0  0  0  0  0  0  0  0  0
   19.0230  -32.8930   38.8370 C   0  0  0  0  0  0  0  0  0  0  0  0
   18.6160  -33.8940   39.7200 C   0  0  0  0  0  0  0  0  0  0  0  0
   18.3650  -35.1820   39.2440 C   0  0  0  0  0  0  0  0  0  0  0  0
   18.5200  -35.4690   37.8870 C   0  0  0  0  0  0  0  0  0  0  0  0
   18.9260  -34.4690   37.0080 C   0  0  0  0  0  0  0  0  0  0  0  0
   19.0570  -34.8180   35.6920 O   0  0  0  0  0  0  0  0  0  0  0  0
   19.1770  -33.1790   37.4850 C   0  0  0  0  0  0  0  0  0  0  0  0
   19.6050  -32.0990   36.5950 C   0  0  0  0  0  0  0  0  0  0  0  0
   19.7560  -32.2700   35.3880 O   0  0  0  0  0  0  0  0  0  0  0  0
   19.8530  -30.7700   37.2020 C   0  0  0  0  0  0  0  0  0  0  0  0
   20.2440  -29.7530   36.3500 O   0  0  0  0  0  0  0  0  0  0  0  0
   21.1270  -28.9770   39.7480 C   0  0  0  0  0  0  0  0  0  0  0  0
   21.3220  -27.7590   40.4340 C   0  0  0  0  0  0  0  0  0  0  0  0
   22.7200  -27.4240   40.9210 C   0  0  0  0  0  0  0  0  0  0  0  0
   23.0840  -28.0020   42.2720 C   0  0  0  0  0  0  0  0  0  0  0  0
   23.8470  -29.1770   42.3520 C   0  0  0  0  0  0  0  0  0  0  0  0
   24.2080  -29.7070   43.5930 C   0  0  0  0  0  0  0  0  0  0  0  0
   23.8180  -29.0650   44.7660 C   0  0  0  0  0  0  0  0  0  0  0  0
   23.0710  -27.8920   44.7010 C   0  0  0  0  0  0  0  0  0  0  0  0
   22.7100  -27.3600   43.4620 C   0  0  0  0  0  0  0  0  0  0  0  0
   20.3377  -25.7267   42.4151 H   0  0  0  0  0  0  0  0  0  0  0  0
   21.3026  -25.0997   41.0358 H   0  0  0  0  0  0  0  0  0  0  0  0
   19.5151  -24.9220   41.0358 H   0  0  0  0  0  0  0  0  0  0  0  0
   18.1055  -26.6039   40.2660 H   0  0  0  0  0  0  0  0  0  0  0  0
   17.7997  -28.7546   39.0619 H   0  0  0  0  0  0  0  0  0  0  0  0
   18.4931  -33.6684   40.7896 H   0  0  0  0  0  0  0  0  0  0  0  0
   18.0446  -35.9718   39.9394 H   0  0  0  0  0  0  0  0  0  0  0  0
   18.3216  -36.4841   37.5126 H   0  0  0  0  0  0  0  0  0  0  0  0
   18.6400  -35.5920   35.3690 H   0  0  0  0  0  0  0  0  0  0  0  0
   21.0940  -29.7720   35.9560 H   0  0  0  0  0  0  0  0  0  0  0  0
   21.9814  -29.6559   39.6100 H   0  0  0  0  0  0  0  0  0  0  0  0
   23.4393  -27.8061   40.1817 H   0  0  0  0  0  0  0  0  0  0  0  0
   22.7507  -26.3305   41.0368 H   0  0  0  0  0  0  0  0  0  0  0  0
   24.1636  -29.6852   41.4293 H   0  0  0  0  0  0  0  0  0  0  0  0
   24.8008  -30.6322   43.6440 H   0  0  0  0  0  0  0  0  0  0  0  0
   24.1000  -29.4845   45.7430 H   0  0  0  0  0  0  0  0  0  0  0  0
   22.7648  -27.3837   45.6273 H   0  0  0  0  0  0  0  0  0  0  0  0
   22.1267  -26.4284   43.4183 H   0  0  0  0  0  0  0  0  0  0  0  0
  1  2  1  0
  2  3  2  0
  3  4  1  0
  4  5  2  0
  5  6  1  0
  6  7  1  0
  7  8  1  0
  8  9  2  0
  9 10  1  0
 10 11  2  0
 11 12  1  0
 12 13  1  0
 12 14  2  0
 14 15  1  0
 15 16  2  0
 15 17  1  0
 17 18  1  0
  5 19  1  0
 19 20  2  0
 20 21  1  0
 21 22  1  0
 22 23  2  0
 23 24  1  0
 24 25  2  0
 25 26  1  0
 26 27  2  0
 20  2  1  0
 27 22  1  0
 17  6  2  0
 14  8  1  0
  1 28  1  0
  1 29  1  0
  1 30  1  0
  3 31  1  0
  4 32  1  0
  9 33  1  0
 10 34  1  0
 11 35  1  0
 13 36  1  0
 18 37  1  0
 19 38  1  0
 21 39  1  0
 21 40  1  0
 23 41  1  0
 24 42  1  0
 25 43  1  0
 26 44  1  0
 27 45  1  0
M  END
>  <meeko>  (1) 
{"is_sidechain": [false], "free_energy": -9.999, "intermolecular_energy": -12.337, "internal_energy": -1.061}

$$$$
cand_001_out
     RDKit          3D

 45 48  0  0  0  0  0  0  0  0999 V2000
   20.5750  -24.9650   42.8660 C   0  0  0  0  0  0  0  0  0  0  0  0
   20.5150  -26.1460   41.9360 C   0  0  0  0  0  0  0  0  0  0  0  0
   19.3200  -26.3970   41.2440 C   0  0  0  0  0  0  0  0  0  0  0  0
   19.2190  -27.4620   40.3450 C   0  0  0  0  0  0  0  0  0  0  0  0
   20.3140  -28.2990   40.1030 C   0  0  0  0  0  0  0  0  0  0  0  0
   20.1840  -29.4290   39.1590 C   0  0  0  0  0  0  0  0  0  0  0  0
   19.5450  -30.5300   39.7200 O   0  0  0  0  0  0  0  0  0  0  0  0
   19.3570  -31.6500   38.9510 C   0  0  0  0  0  0  0  0  0  0  0  0
   18.7260  -32.7370   39.5570 C   0  0  0  0  0  0  0  0  0  0  0  0
   18.5020  -33.9070   38.8300 C   0  0  0  0  0  0  0  0  0  0  0  0
   18.9100  -33.9920   37.4980 C   0  0  0  0  0  0  0  0  0  0  0  0
   19.5400  -32.9060   36.8940 C   0  0  0  0  0  0  0  0  0  0  0  0
   19.9120  -33.0570   35.5870 O   0  0  0  0  0  0  0  0  0  0  0  0
   19.7630  -31.7350   37.6230 C   0  0  0  0  0  0  0  0  0  0  0  0
   20.4220  -30.5710   37.0270 C   0  0  0  0  0  0  0  0  0  0  0  0
   20.8020  -30.5660   35.8580 O   0  0  0  0  0  0  0  0  0  0  0  0
   20.6190  -29.3810   37.8880 C   0  0  0  0  0  0  0  0  0  0  0  0
   21.2300  -28.2830   37.3100 O   0  0  0  0  0  0  0  0  0  0  0  0
   21.5050  -28.0520   40.7980 C   0  0  0  0  0  0  0  0  0  0  0  0
   21.6290  -26.9790   41.7060 C   0  0  0  0  0  0  0  0  0  0  0  0
   22.9680  -26.7630   42.3870 C   0  0  0  0  0  0  0  0  0  0  0  0
   23.6220  -28.0170   42.9260 C   0  0  0  0  0  0  0  0  0  0  0  0
   23.7800  -29.1400   42.0990 C   0  0  0  0  0  0  0  0  0  0  0  0
   24.4040  -30.2940   42.5780 C   0  0  0  0  0  0  0  0  0  0  0  0
   24.8820  -30.3380   43.8860 C   0  0  0  0  0  0  0  0  0  0  0  0
   24.7420  -29.2260   44.7140 C   0  0  0  0  0  0  0  0  0  0  0  0
   24.1200  -28.0710   44.2360 C   0  0  0  0  0  0  0  0  0  0  0  0
   20.5571  -25.3174   43.9079 H   0  0  0  0  0  0  0  0  0  0  0  0
   21.5029  -24.4026   42.6851 H   0  0  0  0  0  0  0  0  0  0  0  0
   19.7089  -24.3114   42.6851 H   0  0  0  0  0  0  0  0  0  0  0  0
   18.4497  -25.7455   41.4119 H   0  0  0  0  0  0  0  0  0  0  0  0
   18.2686  -27.6444   39.8220 H   0  0  0  0  0  0  0  0  0  0  0  0
   18.4053  -32.6718   40.6072 H   0  0  0  0  0  0  0  0  0  0  0  0
   18.0032  -34.7633   39.3074 H   0  0  0  0  0  0  0  0  0  0  0  0
   18.7344  -34.9150   36.9259 H   0  0  0  0  0  0  0  0  0  0  0  0
   19.4280  -32.6270   34.9100 H   0  0  0  0  0  0  0  0  0  0  0  0
   21.8930  -27.8150   37.7790 H   0  0  0  0  0  0  0  0  0  0  0  0
   22.3680  -28.7133   40.6312 H   0  0  0  0  0  0  0  0  0  0  0  0
   23.6529  -26.3082   41.6562 H   0  0  0  0  0  0  0  0  0  0  0  0
   22.7695  -26.1214   43.2582 H   0  0  0  0  0  0  0  0  0  0  0  0
   23.4089  -29.1109   41.0639 H   0  0  0  0  0  0  0  0  0  0  0  0
   24.5182  -31.1694   41.9217 H   0  0  0  0  0  0  0  0  0  0  0  0
   25.3690  -31.2489   44.2643 H   0  0  0  0  0  0  0  0  0  0  0  0
   25.1221  -29.2582   45.7457 H   0  0  0  0  0  0  0  0  0  0  0  0
   24.0196  -27.1947   44.8933 H   0  0  0  0  0  0  0  0  0  0  0  0
  1  2  1  0
  2  3  2  0
  3  4  1  0
  4  5  2  0
  5  6  1  0
  6  7  1  0
  7  8  1  0
  8  9  2  0
  9 10  1  0
 10 11  2  0
 11 12  1  0
 12 13  1  0
 12 14  2  0
 14 15  1  0
 15 16  2  0
 15 17  1  0
 17 18  1  0
  5 19  1  0
 19 20  2  0
 20 21  1  0
 21 22  1  0
 22 23  2  0
 23 24  1  0
 24 25  2  0
 25 26  1  0
 26 27  2  0
 20  2  1  0
 27 22  1  0
 17  6  2  0
 14  8  1  0
  1 28  1  0
  1 29  1  0
  1 30  1  0
  3 31  1  0
  4 32  1  0
  9 33  1  0
 10 34  1  0
 11 35  1  0
 13 36  1  0
 18 37  1  0
 19 38  1  0
 21 39  1  0
 21 40  1  0
 23 41  1  0
 24 42  1  0
 25 43  1  0
 26 44  1  0
 27 45  1  0
M  END
>  <meeko>  (2) 
{"is_sidechain": [false], "free_energy": -9.72, "intermolecular_energy": -12.739, "internal_energy": -0.315}

$$$$
cand_001_out
     RDKit          3D

 45 48  0  0  0  0  0  0  0  0999 V2000
   20.2390  -26.2720   41.2130 C   0  0  0  0  0  0  0  0  0  0  0  0
   20.1370  -27.5270   40.3900 C   0  0  0  0  0  0  0  0  0  0  0  0
   18.8710  -27.9450   39.9550 C   0  0  0  0  0  0  0  0  0  0  0  0
   18.7220  -29.0860   39.1620 C   0  0  0  0  0  0  0  0  0  0  0  0
   19.8370  -29.8350   38.7730 C   0  0  0  0  0  0  0  0  0  0  0  0
   19.6590  -31.0480   37.9460 C   0  0  0  0  0  0  0  0  0  0  0  0
   20.0800  -30.8710   36.6320 O   0  0  0  0  0  0  0  0  0  0  0  0
   19.9710  -31.9210   35.7550 C   0  0  0  0  0  0  0  0  0  0  0  0
   20.3910  -31.6970   34.4430 C   0  0  0  0  0  0  0  0  0  0  0  0
   20.3090  -32.7230   33.5010 C   0  0  0  0  0  0  0  0  0  0  0  0
   19.8080  -33.9730   33.8690 C   0  0  0  0  0  0  0  0  0  0  0  0
   19.3900  -34.1950   35.1780 C   0  0  0  0  0  0  0  0  0  0  0  0
   18.9110  -35.4420   35.4710 O   0  0  0  0  0  0  0  0  0  0  0  0
   19.4720  -33.1660   36.1220 C   0  0  0  0  0  0  0  0  0  0  0  0
   19.0430  -33.3580   37.5080 C   0  0  0  0  0  0  0  0  0  0  0  0
   18.5990  -34.4310   37.9110 O   0  0  0  0  0  0  0  0  0  0  0  0
   19.1640  -32.2020   38.4270 C   0  0  0  0  0  0  0  0  0  0  0  0
   18.7680  -32.3980   39.7380 O   0  0  0  0  0  0  0  0  0  0  0  0
   21.1020  -29.4220   39.2120 C   0  0  0  0  0  0  0  0  0  0  0  0
   21.2730  -28.2700   40.0080 C   0  0  0  0  0  0  0  0  0  0  0  0
   22.6830  -27.8740   40.4090 C   0  0  0  0  0  0  0  0  0  0  0  0
   23.2020  -28.5410   41.6640 C   0  0  0  0  0  0  0  0  0  0  0  0
   23.8090  -29.8050   41.5910 C   0  0  0  0  0  0  0  0  0  0  0  0
   24.3130  -30.4190   42.7400 C   0  0  0  0  0  0  0  0  0  0  0  0
   24.2250  -29.7750   43.9720 C   0  0  0  0  0  0  0  0  0  0  0  0
   23.6360  -28.5150   44.0560 C   0  0  0  0  0  0  0  0  0  0  0  0
   23.1330  -27.8990   42.9100 C   0  0  0  0  0  0  0  0  0  0  0  0
   20.2179  -26.5316   42.2817 H   0  0  0  0  0  0  0  0  0  0  0  0
   21.1820  -25.7561   40.9796 H   0  0  0  0  0  0  0  0  0  0  0  0
   19.3917  -25.6106   40.9796 H   0  0  0  0  0  0  0  0  0  0  0  0
   17.9813  -27.3656   40.2425 H   0  0  0  0  0  0  0  0  0  0  0  0
   17.7174  -29.3981   38.8405 H   0  0  0  0  0  0  0  0  0  0  0  0
   20.7863  -30.7126   34.1519 H   0  0  0  0  0  0  0  0  0  0  0  0
   20.6396  -32.5467   32.4668 H   0  0  0  0  0  0  0  0  0  0  0  0
   19.7437  -34.7813   33.1256 H   0  0  0  0  0  0  0  0  0  0  0  0
   19.3770  -35.9960   36.0650 H   0  0  0  0  0  0  0  0  0  0  0  0
   18.2090  -31.7740   40.1570 H   0  0  0  0  0  0  0  0  0  0  0  0
   21.9858  -30.0122   38.9282 H   0  0  0  0  0  0  0  0  0  0  0  0
   23.3588  -28.1328   39.5806 H   0  0  0  0  0  0  0  0  0  0  0  0
   22.6499  -26.7959   40.6250 H   0  0  0  0  0  0  0  0  0  0  0  0
   23.8884  -30.3163   40.6203 H   0  0  0  0  0  0  0  0  0  0  0  0
   24.7801  -31.4126   42.6718 H   0  0  0  0  0  0  0  0  0  0  0  0
   24.6197  -30.2602   44.8769 H   0  0  0  0  0  0  0  0  0  0  0  0
   23.5675  -28.0049   45.0282 H   0  0  0  0  0  0  0  0  0  0  0  0
   22.6778  -26.9003   42.9837 H   0  0  0  0  0  0  0  0  0  0  0  0
  1  2  1  0
  2  3  2  0
  3  4  1  0
  4  5  2  0
  5  6  1  0
  6  7  1  0
  7  8  1  0
  8  9  2  0
  9 10  1  0
 10 11  2  0
 11 12  1  0
 12 13  1  0
 12 14  2  0
 14 15  1  0
 15 16  2  0
 15 17  1  0
 17 18  1  0
  5 19  1  0
 19 20  2  0
 20 21  1  0
 21 22  1  0
 22 23  2  0
 23 24  1  0
 24 25  2  0
 25 26  1  0
 26 27  2  0
 20  2  1  0
 27 22  1  0
 17  6  2  0
 14  8  1  0
  1 28  1  0
  1 29  1  0
  1 30  1  0
  3 31  1  0
  4 32  1  0
  9 33  1  0
 10 34  1  0
 11 35  1  0
 13 36  1  0
 18 37  1  0
 19 38  1  0
 21 39  1  0
 21 40  1  0
 23 41  1  0
 24 42  1  0
 25 43  1  0
 26 44  1  0
 27 45  1  0
M  END
>  <meeko>  (3) 
{"is_sidechain": [false], "free_energy": -9.586, "intermolecular_energy": -11.902, "internal_energy": -0.986}

$$$$
cand_001_out
     RDKit          3D

 45 48  0  0  0  0  0  0  0  0999 V2000
   22.4120  -26.8250   42.2220 C   0  0  0  0  0  0  0  0  0  0  0  0
   21.8610  -27.8190   41.2360 C   0  0  0  0  0  0  0  0  0  0  0  0
   22.7170  -28.8090   40.7300 C   0  0  0  0  0  0  0  0  0  0  0  0
   22.2500  -29.7760   39.8360 C   0  0  0  0  0  0  0  0  0  0  0  0
   20.9110  -29.7870   39.4320 C   0  0  0  0  0  0  0  0  0  0  0  0
   20.4390  -30.8100   38.4740 C   0  0  0  0  0  0  0  0  0  0  0  0
   19.9830  -31.9650   39.0990 O   0  0  0  0  0  0  0  0  0  0  0  0
   19.5150  -32.9970   38.3250 C   0  0  0  0  0  0  0  0  0  0  0  0
   19.0820  -34.1440   38.9920 C   0  0  0  0  0  0  0  0  0  0  0  0
   18.5920  -35.2290   38.2640 C   0  0  0  0  0  0  0  0  0  0  0  0
   18.5340  -35.1690   36.8710 C   0  0  0  0  0  0  0  0  0  0  0  0
   18.9660  -34.0240   36.2070 C   0  0  0  0  0  0  0  0  0  0  0  0
   18.8810  -34.0310   34.8420 O   0  0  0  0  0  0  0  0  0  0  0  0
   19.4570  -32.9370   36.9360 C   0  0  0  0  0  0  0  0  0  0  0  0
   19.9210  -31.7150   36.2780 C   0  0  0  0  0  0  0  0  0  0  0  0
   19.8950  -31.5820   35.0570 O   0  0  0  0  0  0  0  0  0  0  0  0
   20.4310  -30.6240   37.1420 C   0  0  0  0  0  0  0  0  0  0  0  0
   20.8550  -29.4680   36.5100 O   0  0  0  0  0  0  0  0  0  0  0  0
   20.0570  -28.7960   39.9330 C   0  0  0  0  0  0  0  0  0  0  0  0
   20.5080  -27.8140   40.8400 C   0  0  0  0  0  0  0  0  0  0  0  0
   19.5060  -26.7990   41.3600 C   0  0  0  0  0  0  0  0  0  0  0  0
   19.4360  -25.5080   40.5740 C   0  0  0  0  0  0  0  0  0  0  0  0
   19.5190  -24.2740   41.2370 C   0  0  0  0  0  0  0  0  0  0  0  0
   19.4800  -23.0770   40.5190 C   0  0  0  0  0  0  0  0  0  0  0  0
   19.3650  -23.0980   39.1310 C   0  0  0  0  0  0  0  0  0  0  0  0
   19.2930  -24.3170   38.4590 C   0  0  0  0  0  0  0  0  0  0  0  0
   19.3340  -25.5150   39.1740 C   0  0  0  0  0  0  0  0  0  0  0  0
   22.2168  -27.1772   43.2456 H   0  0  0  0  0  0  0  0  0  0  0  0
   23.4966  -26.7210   42.0706 H   0  0  0  0  0  0  0  0  0  0  0  0
   21.9255  -25.8501   42.0706 H   0  0  0  0  0  0  0  0  0  0  0  0
   23.7718  -28.8241   41.0419 H   0  0  0  0  0  0  0  0  0  0  0  0
   22.9425  -30.5364   39.4459 H   0  0  0  0  0  0  0  0  0  0  0  0
   19.1269  -34.1926   40.0900 H   0  0  0  0  0  0  0  0  0  0  0  0
   18.2508  -36.1333   38.7892 H   0  0  0  0  0  0  0  0  0  0  0  0
   18.1476  -36.0250   36.2984 H   0  0  0  0  0  0  0  0  0  0  0  0
   18.9870  -33.2340   34.3610 H   0  0  0  0  0  0  0  0  0  0  0  0
   21.7680  -29.2600   36.4770 H   0  0  0  0  0  0  0  0  0  0  0  0
   19.0055  -28.7831   39.6102 H   0  0  0  0  0  0  0  0  0  0  0  0
   18.5092  -27.2637   41.3421 H   0  0  0  0  0  0  0  0  0  0  0  0
   19.8426  -26.5253   42.3708 H   0  0  0  0  0  0  0  0  0  0  0  0
   19.6157  -24.2494   42.3325 H   0  0  0  0  0  0  0  0  0  0  0  0
   19.5402  -22.1158   41.0504 H   0  0  0  0  0  0  0  0  0  0  0  0
   19.3311  -22.1545   38.5664 H   0  0  0  0  0  0  0  0  0  0  0  0
   19.2037  -24.3349   37.3628 H   0  0  0  0  0  0  0  0  0  0  0  0
   19.2860  -26.4731   38.6357 H   0  0  0  0  0  0  0  0  0  0  0  0
  1  2  1  0
  2  3  2  0
  3  4  1  0
  4  5  2  0
  5  6  1  0
  6  7  1  0
  7  8  1  0
  8  9  2  0
  9 10  1  0
 10 11  2  0
 11 12  1  0
 12 13  1  0
 12 14  2  0
 14 15  1  0
 15 16  2  0
 15 17  1  0
 17 18  1  0
  5 19  1  0
 19 20  2  0
 20 21  1  0
 21 22  1  0
 22 23  2  0
 23 24  1  0
 24 25  2  0
 25 26  1  0
 26 27  2  0
 20  2  1  0
 27 22  1  0
 17  6  2  0
 14  8  1  0
  1 28  1  0
  1 29  1  0
  1 30  1  0
  3 31  1  0
  4 32  1  0
  9 33  1  0
 10 34  1  0
 11 35  1  0
 13 36  1  0
 18 37  1  0
 19 38  1  0
 21 39  1  0
 21 40  1  0
 23 41  1  0
 24 42  1  0
 25 43  1  0
 26 44  1  0
 27 45  1  0
M  END
>  <meeko>  (4) 
{"is_sidechain": [false], "free_energy": -9.566, "intermolecular_energy": -11.892, "internal_energy": -0.972}

$$$$
cand_001_out
     RDKit          3D

 45 48  0  0  0  0  0  0  0  0999 V2000
   19.2360  -28.6360   35.3680 C   0  0  0  0  0  0  0  0  0  0  0  0
   19.9670  -28.5040   36.6760 C   0  0  0  0  0  0  0  0  0  0  0  0
   20.0690  -27.2340   37.2640 C   0  0  0  0  0  0  0  0  0  0  0  0
   20.7100  -27.0600   38.4940 C   0  0  0  0  0  0  0  0  0  0  0  0
   21.2550  -28.1520   39.1760 C   0  0  0  0  0  0  0  0  0  0  0  0
   21.9410  -27.9460   40.4690 C   0  0  0  0  0  0  0  0  0  0  0  0
   22.7510  -29.0190   40.8280 O   0  0  0  0  0  0  0  0  0  0  0  0
   23.4480  -28.9570   42.0080 C   0  0  0  0  0  0  0  0  0  0  0  0
   24.2360  -30.0610   42.3360 C   0  0  0  0  0  0  0  0  0  0  0  0
   24.9720  -30.0630   43.5220 C   0  0  0  0  0  0  0  0  0  0  0  0
   24.9210  -28.9630   44.3790 C   0  0  0  0  0  0  0  0  0  0  0  0
   24.1350  -27.8620   44.0500 C   0  0  0  0  0  0  0  0  0  0  0  0
   24.1320  -26.8180   44.9340 O   0  0  0  0  0  0  0  0  0  0  0  0
   23.3970  -27.8610   42.8620 C   0  0  0  0  0  0  0  0  0  0  0  0
   22.5580  -26.7250   42.4790 C   0  0  0  0  0  0  0  0  0  0  0  0
   22.4670  -25.7170   43.1760 O   0  0  0  0  0  0  0  0  0  0  0  0
   21.8100  -26.8270   41.2040 C   0  0  0  0  0  0  0  0  0  0  0  0
   21.0300  -25.7420   40.8440 O   0  0  0  0  0  0  0  0  0  0  0  0
   21.1570  -29.4200   38.5880 C   0  0  0  0  0  0  0  0  0  0  0  0
   20.5110  -29.6170   37.3490 C   0  0  0  0  0  0  0  0  0  0  0  0
   20.4190  -31.0310   36.8020 C   0  0  0  0  0  0  0  0  0  0  0  0
   19.6730  -32.0100   37.6810 C   0  0  0  0  0  0  0  0  0  0  0  0
   19.1670  -33.2010   37.1370 C   0  0  0  0  0  0  0  0  0  0  0  0
   18.4980  -34.1240   37.9440 C   0  0  0  0  0  0  0  0  0  0  0  0
   18.3330  -33.8720   39.3040 C   0  0  0  0  0  0  0  0  0  0  0  0
   18.8420  -32.7000   39.8600 C   0  0  0  0  0  0  0  0  0  0  0  0
   19.5120  -31.7770   39.0550 C   0  0  0  0  0  0  0  0  0  0  0  0
   18.1704  -28.8284   35.5613 H   0  0  0  0  0  0  0  0  0  0  0  0
   19.3419  -27.7042   34.7931 H   0  0  0  0  0  0  0  0  0  0  0  0
   19.6611  -29.4719   34.7931 H   0  0  0  0  0  0  0  0  0  0  0  0
   19.6382  -26.3625   36.7494 H   0  0  0  0  0  0  0  0  0  0  0  0
   20.7864  -26.0530   38.9300 H   0  0  0  0  0  0  0  0  0  0  0  0
   24.2771  -30.9285   41.6608 H   0  0  0  0  0  0  0  0  0  0  0  0
   25.5931  -30.9330   43.7814 H   0  0  0  0  0  0  0  0  0  0  0  0
   25.5012  -28.9658   45.3135 H   0  0  0  0  0  0  0  0  0  0  0  0
   24.9280  -26.5550   45.3500 H   0  0  0  0  0  0  0  0  0  0  0  0
   20.8260  -25.5900   39.9430 H   0  0  0  0  0  0  0  0  0  0  0  0
   21.5956  -30.2855   39.1063 H   0  0  0  0  0  0  0  0  0  0  0  0
   19.9075  -30.9877   35.8291 H   0  0  0  0  0  0  0  0  0  0  0  0
   21.4522  -31.4027   36.7365 H   0  0  0  0  0  0  0  0  0  0  0  0
   19.2986  -33.4093   36.0650 H   0  0  0  0  0  0  0  0  0  0  0  0
   18.1009  -35.0511   37.5050 H   0  0  0  0  0  0  0  0  0  0  0  0
   17.8017  -34.5970   39.9381 H   0  0  0  0  0  0  0  0  0  0  0  0
   18.7157  -32.5019   40.9346 H   0  0  0  0  0  0  0  0  0  0  0  0
   19.9178  -30.8577   39.5026 H   0  0  0  0  0  0  0  0  0  0  0  0
  1  2  1  0
  2  3  2  0
  3  4  1  0
  4  5  2  0
  5  6  1  0
  6  7  1  0
  7  8  1  0
  8  9  2  0
  9 10  1  0
 10 11  2  0
 11 12  1  0
 12 13  1  0
 12 14  2  0
 14 15  1  0
 15 16  2  0
 15 17  1  0
 17 18  1  0
  5 19  1  0
 19 20  2  0
 20 21  1  0
 21 22  1  0
 22 23  2  0
 23 24  1  0
 24 25  2  0
 25 26  1  0
 26 27  2  0
 20  2  1  0
 27 22  1  0
 17  6  2  0
 14  8  1  0
  1 28  1  0
  1 29  1  0
  1 30  1  0
  3 31  1  0
  4 32  1  0
  9 33  1  0
 10 34  1  0
 11 35  1  0
 13 36  1  0
 18 37  1  0
 19 38  1  0
 21 39  1  0
 21 40  1  0
 23 41  1  0
 24 42  1  0
 25 43  1  0
 26 44  1  0
 27 45  1  0
M  END
>  <meeko>  (5) 
{"is_sidechain": [false], "free_energy": -9.129, "intermolecular_energy": -12.527, "internal_energy": 0.203}

$$$$
cand_001_out
     RDKit          3D

 45 48  0  0  0  0  0  0  0  0999 V2000
   21.7890  -26.7380   41.7670 C   0  0  0  0  0  0  0  0  0  0  0  0
   21.3370  -27.7970   40.7990 C   0  0  0  0  0  0  0  0  0  0  0  0
   22.2350  -28.8180   40.4520 C   0  0  0  0  0  0  0  0  0  0  0  0
   21.8580  -29.8430   39.5810 C   0  0  0  0  0  0  0  0  0  0  0  0
   20.5690  -29.8840   39.0420 C   0  0  0  0  0  0  0  0  0  0  0  0
   20.1920  -30.9690   38.1120 C   0  0  0  0  0  0  0  0  0  0  0  0
   20.5660  -30.7070   36.7980 O   0  0  0  0  0  0  0  0  0  0  0  0
   20.2760  -31.6340   35.8290 C   0  0  0  0  0  0  0  0  0  0  0  0
   20.6550  -31.3240   34.5220 C   0  0  0  0  0  0  0  0  0  0  0  0
   20.3920  -32.2250   33.4890 C   0  0  0  0  0  0  0  0  0  0  0  0
   19.7520  -33.4350   33.7610 C   0  0  0  0  0  0  0  0  0  0  0  0
   19.3750  -33.7430   35.0660 C   0  0  0  0  0  0  0  0  0  0  0  0
   18.7520  -34.9450   35.2620 O   0  0  0  0  0  0  0  0  0  0  0  0
   19.6380  -32.8400   36.1000 C   0  0  0  0  0  0  0  0  0  0  0  0
   19.2580  -33.1240   37.4850 C   0  0  0  0  0  0  0  0  0  0  0  0
   18.6990  -34.1700   37.8060 O   0  0  0  0  0  0  0  0  0  0  0  0
   19.5750  -32.0970   38.5050 C   0  0  0  0  0  0  0  0  0  0  0  0
   19.2240  -32.3820   39.8130 O   0  0  0  0  0  0  0  0  0  0  0  0
   19.6730  -28.8620   39.3840 C   0  0  0  0  0  0  0  0  0  0  0  0
   20.0330  -27.8210   40.2650 C   0  0  0  0  0  0  0  0  0  0  0  0
   18.9880  -26.7740   40.6080 C   0  0  0  0  0  0  0  0  0  0  0  0
   19.1080  -25.4740   39.8430 C   0  0  0  0  0  0  0  0  0  0  0  0
   19.1920  -24.2560   40.5340 C   0  0  0  0  0  0  0  0  0  0  0  0
   19.3280  -23.0520   39.8390 C   0  0  0  0  0  0  0  0  0  0  0  0
   19.3880  -23.0520   38.4480 C   0  0  0  0  0  0  0  0  0  0  0  0
   19.3180  -24.2560   37.7500 C   0  0  0  0  0  0  0  0  0  0  0  0
   19.1840  -25.4600   38.4420 C   0  0  0  0  0  0  0  0  0  0  0  0
   21.6372  -27.0937   42.7968 H   0  0  0  0  0  0  0  0  0  0  0  0
   22.8562  -26.5255   41.6060 H   0  0  0  0  0  0  0  0  0  0  0  0
   21.2041  -25.8204   41.6060 H   0  0  0  0  0  0  0  0  0  0  0  0
   23.2515  -28.8111   40.8724 H   0  0  0  0  0  0  0  0  0  0  0  0
   22.5835  -30.6264   39.3164 H   0  0  0  0  0  0  0  0  0  0  0  0
   21.1602  -30.3710   34.3064 H   0  0  0  0  0  0  0  0  0  0  0  0
   20.6897  -31.9809   32.4586 H   0  0  0  0  0  0  0  0  0  0  0  0
   19.5456  -34.1444   32.9460 H   0  0  0  0  0  0  0  0  0  0  0  0
   19.1860  -35.6250   35.7380 H   0  0  0  0  0  0  0  0  0  0  0  0
   18.4040  -32.7950   39.9990 H   0  0  0  0  0  0  0  0  0  0  0  0
   18.6608  -28.8720   38.9534 H   0  0  0  0  0  0  0  0  0  0  0  0
   17.9960  -27.2015   40.4002 H   0  0  0  0  0  0  0  0  0  0  0  0
   19.1426  -26.5219   41.6675 H   0  0  0  0  0  0  0  0  0  0  0  0
   19.1504  -24.2490   41.6332 H   0  0  0  0  0  0  0  0  0  0  0  0
   19.3878  -22.1026   40.3914 H   0  0  0  0  0  0  0  0  0  0  0  0
   19.4905  -22.1032   37.9010 H   0  0  0  0  0  0  0  0  0  0  0  0
   19.3685  -24.2572   36.6512 H   0  0  0  0  0  0  0  0  0  0  0  0
   19.1375  -26.4069   37.8842 H   0  0  0  0  0  0  0  0  0  0  0  0
  1  2  1  0
  2  3  2  0
  3  4  1  0
  4  5  2  0
  5  6  1  0
  6  7  1  0
  7  8  1  0
  8  9  2  0
  9 10  1  0
 10 11  2  0
 11 12  1  0
 12 13  1  0
 12 14  2  0
 14 15  1  0
 15 16  2  0
 15 17  1  0
 17 18  1  0
  5 19  1  0
 19 20  2  0
 20 21  1  0
 21 22  1  0
 22 23  2  0
 23 24  1  0
 24 25  2  0
 25 26  1  0
 26 27  2  0
 20  2  1  0
 27 22  1  0
 17  6  2  0
 14  8  1  0
  1 28  1  0
  1 29  1  0
  1 30  1  0
  3 31  1  0
  4 32  1  0
  9 33  1  0
 10 34  1  0
 11 35  1  0
 13 36  1  0
 18 37  1  0
 19 38  1  0
 21 39  1  0
 21 40  1  0
 23 41  1  0
 24 42  1  0
 25 43  1  0
 26 44  1  0
 27 45  1  0
M  END
>  <meeko>  (6) 
{"is_sidechain": [false], "free_energy": -9.06, "intermolecular_energy": -11.244, "internal_energy": -0.995}

$$$$
cand_001_out
     RDKit          3D

 45 48  0  0  0  0  0  0  0  0999 V2000
   24.2570  -26.6620   43.8280 C   0  0  0  0  0  0  0  0  0  0  0  0
   23.5730  -27.3940   42.7060 C   0  0  0  0  0  0  0  0  0  0  0  0
   23.8030  -28.7710   42.5630 C   0  0  0  0  0  0  0  0  0  0  0  0
   23.1700  -29.5060   41.5580 C   0  0  0  0  0  0  0  0  0  0  0  0
   22.2790  -28.8880   40.6750 C   0  0  0  0  0  0  0  0  0  0  0  0
   21.6290  -29.6790   39.6080 C   0  0  0  0  0  0  0  0  0  0  0  0
   20.8050  -30.6830   40.1070 O   0  0  0  0  0  0  0  0  0  0  0  0
   20.1390  -31.4930   39.2230 C   0  0  0  0  0  0  0  0  0  0  0  0
   19.3340  -32.4960   39.7650 C   0  0  0  0  0  0  0  0  0  0  0  0
   18.6270  -33.3540   38.9220 C   0  0  0  0  0  0  0  0  0  0  0  0
   18.7240  -33.2100   37.5360 C   0  0  0  0  0  0  0  0  0  0  0  0
   19.5260  -32.2090   36.9970 C   0  0  0  0  0  0  0  0  0  0  0  0
   19.5750  -32.1230   35.6330 O   0  0  0  0  0  0  0  0  0  0  0  0
   20.2350  -31.3500   37.8430 C   0  0  0  0  0  0  0  0  0  0  0  0
   21.0890  -30.2840   37.3170 C   0  0  0  0  0  0  0  0  0  0  0  0
   21.2200  -30.0890   36.1100 O   0  0  0  0  0  0  0  0  0  0  0  0
   21.8030  -29.4340   38.2980 C   0  0  0  0  0  0  0  0  0  0  0  0
   22.5980  -28.4210   37.7900 O   0  0  0  0  0  0  0  0  0  0  0  0
   22.0520  -27.5120   40.8130 C   0  0  0  0  0  0  0  0  0  0  0  0
   22.6780  -26.7540   41.8250 C   0  0  0  0  0  0  0  0  0  0  0  0
   22.3480  -25.2750   41.9250 C   0  0  0  0  0  0  0  0  0  0  0  0
   21.3570  -24.9130   43.0090 C   0  0  0  0  0  0  0  0  0  0  0  0
   21.8110  -24.5640   44.2910 C   0  0  0  0  0  0  0  0  0  0  0  0
   20.9060  -24.2050   45.2930 C   0  0  0  0  0  0  0  0  0  0  0  0
   19.5400  -24.1830   45.0240 C   0  0  0  0  0  0  0  0  0  0  0  0
   19.0760  -24.5150   43.7530 C   0  0  0  0  0  0  0  0  0  0  0  0
   19.9780  -24.8730   42.7500 C   0  0  0  0  0  0  0  0  0  0  0  0
   23.8956  -27.0488   44.7922 H   0  0  0  0  0  0  0  0  0  0  0  0
   25.3441  -26.8142   43.7561 H   0  0  0  0  0  0  0  0  0  0  0  0
   24.0316  -25.5877   43.7561 H   0  0  0  0  0  0  0  0  0  0  0  0
   24.4925  -29.2794   43.2531 H   0  0  0  0  0  0  0  0  0  0  0  0
   23.3745  -30.5824   41.4601 H   0  0  0  0  0  0  0  0  0  0  0  0
   19.2570  -32.6100   40.8564 H   0  0  0  0  0  0  0  0  0  0  0  0
   17.9926  -34.1446   39.3492 H   0  0  0  0  0  0  0  0  0  0  0  0
   18.1671  -33.8871   36.8716 H   0  0  0  0  0  0  0  0  0  0  0  0
   20.0570  -31.4320   35.2230 H   0  0  0  0  0  0  0  0  0  0  0  0
   23.0320  -28.5340   36.9680 H   0  0  0  0  0  0  0  0  0  0  0  0
   21.3675  -27.0095   40.1137 H   0  0  0  0  0  0  0  0  0  0  0  0
   23.2827  -24.7293   42.1211 H   0  0  0  0  0  0  0  0  0  0  0  0
   21.8740  -25.0006   40.9710 H   0  0  0  0  0  0  0  0  0  0  0  0
   22.8893  -24.5733   44.5085 H   0  0  0  0  0  0  0  0  0  0  0  0
   21.2730  -23.9395   46.2954 H   0  0  0  0  0  0  0  0  0  0  0  0
   18.8278  -23.9037   45.8144 H   0  0  0  0  0  0  0  0  0  0  0  0
   17.9971  -24.4949   43.5397 H   0  0  0  0  0  0  0  0  0  0  0  0
   19.6047  -25.1263   41.7468 H   0  0  0  0  0  0  0  0  0  0  0  0
  1  2  1  0
  2  3  2  0
  3  4  1  0
  4  5  2  0
  5  6  1  0
  6  7  1  0
  7  8  1  0
  8  9  2  0
  9 10  1  0
 10 11  2  0
 11 12  1  0
 12 13  1  0
 12 14  2  0
 14 15  1  0
 15 16  2  0
 15 17  1  0
 17 18  1  0
  5 19  1  0
 19 20  2  0
 20 21  1  0
 21 22  1  0
 22 23  2  0
 23 24  1  0
 24 25  2  0
 25 26  1  0
 26 27  2  0
 20  2  1  0
 27 22  1  0
 17  6  2  0
 14  8  1  0
  1 28  1  0
  1 29  1  0
  1 30  1  0
  3 31  1  0
  4 32  1  0
  9 33  1  0
 10 34  1  0
 11 35  1  0
 13 36  1  0
 18 37  1  0
 19 38  1  0
 21 39  1  0
 21 40  1  0
 23 41  1  0
 24 42  1  0
 25 43  1  0
 26 44  1  0
 27 45  1  0
M  END
>  <meeko>  (7) 
{"is_sidechain": [false], "free_energy": -8.949, "intermolecular_energy": -11.54, "internal_energy": -0.563}

$$$$
cand_001_out
     RDKit          3D

 45 48  0  0  0  0  0  0  0  0999 V2000
   19.1650  -28.5740   35.5190 C   0  0  0  0  0  0  0  0  0  0  0  0
   19.9750  -28.6330   36.7840 C   0  0  0  0  0  0  0  0  0  0  0  0
   20.2640  -27.4340   37.4540 C   0  0  0  0  0  0  0  0  0  0  0  0
   20.9860  -27.4330   38.6500 C   0  0  0  0  0  0  0  0  0  0  0  0
   21.4310  -28.6320   39.2160 C   0  0  0  0  0  0  0  0  0  0  0  0
   22.2060  -28.6100   40.4750 C   0  0  0  0  0  0  0  0  0  0  0  0
   21.8630  -27.5460   41.3020 O   0  0  0  0  0  0  0  0  0  0  0  0
   22.5080  -27.4070   42.5050 C   0  0  0  0  0  0  0  0  0  0  0  0
   22.1440  -26.3170   43.2970 C   0  0  0  0  0  0  0  0  0  0  0  0
   22.7590  -26.1180   44.5330 C   0  0  0  0  0  0  0  0  0  0  0  0
   23.7380  -27.0080   44.9790 C   0  0  0  0  0  0  0  0  0  0  0  0
   24.1000  -28.0950   44.1870 C   0  0  0  0  0  0  0  0  0  0  0  0
   25.0650  -28.9270   44.6850 O   0  0  0  0  0  0  0  0  0  0  0  0
   23.4840  -28.2930   42.9490 C   0  0  0  0  0  0  0  0  0  0  0  0
   23.8350  -29.4230   42.0860 C   0  0  0  0  0  0  0  0  0  0  0  0
   24.6810  -30.2520   42.4110 O   0  0  0  0  0  0  0  0  0  0  0  0
   23.1280  -29.5380   40.7890 C   0  0  0  0  0  0  0  0  0  0  0  0
   23.4580  -30.6160   39.9880 O   0  0  0  0  0  0  0  0  0  0  0  0
   21.1480  -29.8290   38.5460 C   0  0  0  0  0  0  0  0  0  0  0  0
   20.4150  -29.8510   37.3400 C   0  0  0  0  0  0  0  0  0  0  0  0
   20.1230  -31.1960   36.7000 C   0  0  0  0  0  0  0  0  0  0  0  0
   19.5180  -32.2280   37.6270 C   0  0  0  0  0  0  0  0  0  0  0  0
   19.2960  -33.5380   37.1730 C   0  0  0  0  0  0  0  0  0  0  0  0
   18.7600  -34.5040   38.0270 C   0  0  0  0  0  0  0  0  0  0  0  0
   18.4480  -34.1770   39.3440 C   0  0  0  0  0  0  0  0  0  0  0  0
   18.6750  -32.8830   39.8110 C   0  0  0  0  0  0  0  0  0  0  0  0
   19.2110  -31.9160   38.9600 C   0  0  0  0  0  0  0  0  0  0  0  0
   18.0970  -28.4962   35.7707 H   0  0  0  0  0  0  0  0  0  0  0  0
   19.4679  -27.6955   34.9303 H   0  0  0  0  0  0  0  0  0  0  0  0
   19.3374  -29.4871   34.9303 H   0  0  0  0  0  0  0  0  0  0  0  0
   19.9165  -26.4800   37.0307 H   0  0  0  0  0  0  0  0  0  0  0  0
   21.2068  -26.4793   39.1517 H   0  0  0  0  0  0  0  0  0  0  0  0
   21.3726  -25.6153   42.9467 H   0  0  0  0  0  0  0  0  0  0  0  0
   22.4724  -25.2588   45.1572 H   0  0  0  0  0  0  0  0  0  0  0  0
   24.2225  -26.8510   45.9540 H   0  0  0  0  0  0  0  0  0  0  0  0
   25.9450  -28.6200   44.7800 H   0  0  0  0  0  0  0  0  0  0  0  0
   24.3540  -30.7860   39.7770 H   0  0  0  0  0  0  0  0  0  0  0  0
   21.5068  -30.7779   38.9713 H   0  0  0  0  0  0  0  0  0  0  0  0
   19.4227  -31.0329   35.8676 H   0  0  0  0  0  0  0  0  0  0  0  0
   21.0943  -31.6017   36.3807 H   0  0  0  0  0  0  0  0  0  0  0  0
   19.5464  -33.8055   36.1358 H   0  0  0  0  0  0  0  0  0  0  0  0
   18.5839  -35.5254   37.6586 H   0  0  0  0  0  0  0  0  0  0  0  0
   18.0232  -34.9382   40.0149 H   0  0  0  0  0  0  0  0  0  0  0  0
   18.4311  -32.6241   40.8519 H   0  0  0  0  0  0  0  0  0  0  0  0
   19.3946  -30.8993   39.3377 H   0  0  0  0  0  0  0  0  0  0  0  0
  1  2  1  0
  2  3  2  0
  3  4  1  0
  4  5  2  0
  5  6  1  0
  6  7  1  0
  7  8  1  0
  8  9  2  0
  9 10  1  0
 10 11  2  0
 11 12  1  0
 12 13  1  0
 12 14  2  0
 14 15  1  0
 15 16  2  0
 15 17  1  0
 17 18  1  0
  5 19  1  0
 19 20  2  0
 20 21  1  0
 21 22  1  0
 22 23  2  0
 23 24  1  0
 24 25  2  0
 25 26  1  0
 26 27  2  0
 20  2  1  0
 27 22  1  0
 17  6  2  0
 14  8  1  0
  1 28  1  0
  1 29  1  0
  1 30  1  0
  3 31  1  0
  4 32  1  0
  9 33  1  0
 10 34  1  0
 11 35  1  0
 13 36  1  0
 18 37  1  0
 19 38  1  0
 21 39  1  0
 21 40  1  0
 23 41  1  0
 24 42  1  0
 25 43  1  0
 26 44  1  0
 27 45  1  0
M  END
>  <meeko>  (8) 
{"is_sidechain": [false], "free_energy": -8.932, "intermolecular_energy": -12.166, "internal_energy": 0.085}

$$$$
