cand_007_out
     RDKit          3D

 35 37  0  0  0  0  0  0  0  0999 V2000
   19.9770  -31.5290   35.0980 O   0  0  0  0  0  0  0  0  0  0  0  0
   20.0060  -31.7010   36.3150 C   0  0  0  0  0  0  0  0  0  0  0  0
   20.5450  -30.6490   37.2080 C   0  0  0  0  0  0  0  0  0  0  0  0
   21.0180  -29.4960   36.6100 O   0  0  0  0  0  0  0  0  0  0  0  0
   20.5590  -30.8790   38.5350 C   0  0  0  0  0  0  0  0  0  0  0  0
   21.0850  -29.9090   39.5190 C   0  0  0  0  0  0  0  0  0  0  0  0
   22.3870  -30.0000   40.0200 C   0  0  0  0  0  0  0  0  0  0  0  0
   22.8690  -29.0600   40.9350 C   0  0  0  0  0  0  0  0  0  0  0  0
   22.0620  -27.9960   41.3690 C   0  0  0  0  0  0  0  0  0  0  0  0
   22.6130  -26.9940   42.3600 C   0  0  0  0  0  0  0  0  0  0  0  0
   23.8810  -27.3020   42.7520 F   0  0  0  0  0  0  0  0  0  0  0  0
   22.6800  -25.7350   41.8440 F   0  0  0  0  0  0  0  0  0  0  0  0
   21.8830  -26.8890   43.5040 F   0  0  0  0  0  0  0  0  0  0  0  0
   20.7490  -27.8800   40.8610 C   0  0  0  0  0  0  0  0  0  0  0  0
   19.8310  -26.7600   41.2900 C   0  0  0  0  0  0  0  0  0  0  0  0
   19.1810  -27.0140   42.4620 F   0  0  0  0  0  0  0  0  0  0  0  0
   20.2800  -28.8400   39.9430 C   0  0  0  0  0  0  0  0  0  0  0  0
   20.1050  -32.0540   39.1230 O   0  0  0  0  0  0  0  0  0  0  0  0
   19.5960  -33.0430   38.3210 C   0  0  0  0  0  0  0  0  0  0  0  0
   19.1440  -34.2020   38.9550 C   0  0  0  0  0  0  0  0  0  0  0  0
   18.6130  -35.2480   38.1970 C   0  0  0  0  0  0  0  0  0  0  0  0
   18.5360  -35.1360   36.8080 C   0  0  0  0  0  0  0  0  0  0  0  0
   18.9880  -33.9790   36.1780 C   0  0  0  0  0  0  0  0  0  0  0  0
   18.8830  -33.9370   34.8140 O   0  0  0  0  0  0  0  0  0  0  0  0
   19.5180  -32.9320   36.9360 C   0  0  0  0  0  0  0  0  0  0  0  0
   21.2970  -28.7740   37.1390 H   0  0  0  0  0  0  0  0  0  0  0  0
   23.0400  -30.8214   39.6900 H   0  0  0  0  0  0  0  0  0  0  0  0
   23.8948  -29.1550   41.3206 H   0  0  0  0  0  0  0  0  0  0  0  0
   20.4300  -25.8457   41.4140 H   0  0  0  0  0  0  0  0  0  0  0  0
   19.0640  -26.6503   40.5092 H   0  0  0  0  0  0  0  0  0  0  0  0
   19.2572  -28.7497   39.5484 H   0  0  0  0  0  0  0  0  0  0  0  0
   19.2060  -34.2911   40.0496 H   0  0  0  0  0  0  0  0  0  0  0  0
   18.2551  -36.1610   38.6953 H   0  0  0  0  0  0  0  0  0  0  0  0
   18.1188  -35.9606   36.2114 H   0  0  0  0  0  0  0  0  0  0  0  0
   18.3470  -34.5610   34.3660 H   0  0  0  0  0  0  0  0  0  0  0  0
  1  2  2  0
  2  3  1  0
  3  4  1  0
  3  5  2  0
  5  6  1  0
  6  7  2  0
  7  8  1  0
  8  9  2  0
  9 10  1  0
 10 11  1  0
 10 12  1  0
 10 13  1  0
  9 14  1  0
 14 15  1  0
 15 16  1  0
 14 17  2  0
  5 18  1  0
 18 19  1  0
 19 20  2  0
 20 21  1  0
 21 22  2  0
 22 23  1  0
 23 24  1  0
 23 25  2  0
 25  2  1  0
 17  6  1  0
 25 19  1  0
  4 26  1  0
  7 27  1  0
  8 28  1  0
 15 29  1  0
 15 30  1  0
 17 31  1  0
 20 32  1  0
 21 33  1  0
 22 34  1  0
 24 35  1  0
M  END
>  <meeko>  (1) 
{"is_sidechain": [false], "free_energy": -9.639, "intermolecular_energy": -11.893, "internal_energy": -0.51}

$$$$
cand_007_out
     RDKit          3D

 35 37  0  0  0  0  0  0  0  0999 V2000
   20.9090  -30.3650   35.7900 O   0  0  0  0  0  0  0  0  0  0  0  0
   20.8050  -30.6350   36.9850 C   0  0  0  0  0  0  0  0  0  0  0  0
   21.5000  -29.8120   38.0020 C   0  0  0  0  0  0  0  0  0  0  0  0
   22.2670  -28.7580   37.5430 O   0  0  0  0  0  0  0  0  0  0  0  0
   21.3610  -30.1430   39.3000 C   0  0  0  0  0  0  0  0  0  0  0  0
   22.0170  -29.4040   40.3990 C   0  0  0  0  0  0  0  0  0  0  0  0
   23.1760  -29.8810   41.0190 C   0  0  0  0  0  0  0  0  0  0  0  0
   23.7900  -29.1550   42.0430 C   0  0  0  0  0  0  0  0  0  0  0  0
   23.2640  -27.9250   42.4710 C   0  0  0  0  0  0  0  0  0  0  0  0
   23.9530  -27.1620   43.5820 C   0  0  0  0  0  0  0  0  0  0  0  0
   24.9440  -27.8900   44.1680 F   0  0  0  0  0  0  0  0  0  0  0  0
   24.5460  -26.0190   43.1380 F   0  0  0  0  0  0  0  0  0  0  0  0
   23.1210  -26.7830   44.5900 F   0  0  0  0  0  0  0  0  0  0  0  0
   22.1030  -27.4210   41.8440 C   0  0  0  0  0  0  0  0  0  0  0  0
   21.4880  -26.1050   42.2600 C   0  0  0  0  0  0  0  0  0  0  0  0
   22.1330  -25.0200   41.7430 F   0  0  0  0  0  0  0  0  0  0  0  0
   21.4960  -28.1700   40.8170 C   0  0  0  0  0  0  0  0  0  0  0  0
   20.6070  -31.2220   39.7480 O   0  0  0  0  0  0  0  0  0  0  0  0
   19.9490  -31.9980   38.8290 C   0  0  0  0  0  0  0  0  0  0  0  0
   19.1980  -33.0660   39.3240 C   0  0  0  0  0  0  0  0  0  0  0  0
   18.5020  -33.8960   38.4420 C   0  0  0  0  0  0  0  0  0  0  0  0
   18.5580  -33.6600   37.0680 C   0  0  0  0  0  0  0  0  0  0  0  0
   19.3080  -32.5940   36.5760 C   0  0  0  0  0  0  0  0  0  0  0  0
   19.3200  -32.4210   35.2190 O   0  0  0  0  0  0  0  0  0  0  0  0
   20.0040  -31.7640   37.4590 C   0  0  0  0  0  0  0  0  0  0  0  0
   22.3230  -28.5840   36.6240 H   0  0  0  0  0  0  0  0  0  0  0  0
   23.6096  -30.8392   40.6968 H   0  0  0  0  0  0  0  0  0  0  0  0
   24.6978  -29.5523   42.5205 H   0  0  0  0  0  0  0  0  0  0  0  0
   20.4425  -26.0849   41.9186 H   0  0  0  0  0  0  0  0  0  0  0  0
   21.5681  -26.0400   43.3552 H   0  0  0  0  0  0  0  0  0  0  0  0
   20.5908  -27.7777   40.3305 H   0  0  0  0  0  0  0  0  0  0  0  0
   19.1545  -33.2535   40.4070 H   0  0  0  0  0  0  0  0  0  0  0  0
   17.9090  -34.7368   38.8312 H   0  0  0  0  0  0  0  0  0  0  0  0
   18.0106  -34.3148   36.3740 H   0  0  0  0  0  0  0  0  0  0  0  0
   19.8220  -31.7280   34.8390 H   0  0  0  0  0  0  0  0  0  0  0  0
  1  2  2  0
  2  3  1  0
  3  4  1  0
  3  5  2  0
  5  6  1  0
  6  7  2  0
  7  8  1  0
  8  9  2  0
  9 10  1  0
 10 11  1  0
 10 12  1  0
 10 13  1  0
  9 14  1  0
 14 15  1  0
 15 16  1  0
 14 17  2  0
  5 18  1  0
 18 19  1  0
 19 20  2  0
 20 21  1  0
 21 22  2  0
 22 23  1  0
 23 24  1  0
 23 25  2  0
 25  2  1  0
 17  6  1  0
 25 19  1  0
  4 26  1  0
  7 27  1  0
  8 28  1  0
 15 29  1  0
 15 30  1  0
 17 31  1  0
 20 32  1  0
 21 33  1  0
 22 34  1  0
 24 35  1  0
M  END
>  <meeko>  (2) 
{"is_sidechain": [false], "free_energy": -9.603, "intermolecular_energy": -11.867, "internal_energy": -0.491}

$$$$
cand_007_out
     RDKit          3D

 35 37  0  0  0  0  0  0  0  0999 V2000
   20.9430  -30.4610   35.8820 O   0  0  0  0  0  0  0  0  0  0  0  0
   20.7840  -30.5980   37.0940 C   0  0  0  0  0  0  0  0  0  0  0  0
   21.4330  -29.6660   38.0450 C   0  0  0  0  0  0  0  0  0  0  0  0
   22.2210  -28.6650   37.5080 O   0  0  0  0  0  0  0  0  0  0  0  0
   21.2350  -29.8520   39.3630 C   0  0  0  0  0  0  0  0  0  0  0  0
   21.8400  -28.9940   40.4030 C   0  0  0  0  0  0  0  0  0  0  0  0
   21.3810  -27.6960   40.6470 C   0  0  0  0  0  0  0  0  0  0  0  0
   21.9560  -26.9100   41.6490 C   0  0  0  0  0  0  0  0  0  0  0  0
   23.0050  -27.4040   42.4410 C   0  0  0  0  0  0  0  0  0  0  0  0
   23.6060  -26.5280   43.5180 C   0  0  0  0  0  0  0  0  0  0  0  0
   24.9000  -26.1980   43.2510 F   0  0  0  0  0  0  0  0  0  0  0  0
   22.9430  -25.3470   43.6580 F   0  0  0  0  0  0  0  0  0  0  0  0
   23.6140  -27.0990   44.7540 F   0  0  0  0  0  0  0  0  0  0  0  0
   23.4710  -28.7180   42.2180 C   0  0  0  0  0  0  0  0  0  0  0  0
   24.5970  -29.3080   43.0350 C   0  0  0  0  0  0  0  0  0  0  0  0
   25.3430  -30.2200   42.3480 F   0  0  0  0  0  0  0  0  0  0  0  0
   22.8810  -29.4940   41.2010 C   0  0  0  0  0  0  0  0  0  0  0  0
   20.4610  -30.8790   39.8930 O   0  0  0  0  0  0  0  0  0  0  0  0
   19.8440  -31.7540   39.0360 C   0  0  0  0  0  0  0  0  0  0  0  0
   19.0710  -32.7640   39.6110 C   0  0  0  0  0  0  0  0  0  0  0  0
   18.4160  -33.6890   38.7960 C   0  0  0  0  0  0  0  0  0  0  0  0
   18.5340  -33.6060   37.4070 C   0  0  0  0  0  0  0  0  0  0  0  0
   19.3070  -32.5970   36.8360 C   0  0  0  0  0  0  0  0  0  0  0  0
   19.3800  -32.5750   35.4700 O   0  0  0  0  0  0  0  0  0  0  0  0
   19.9620  -31.6720   37.6520 C   0  0  0  0  0  0  0  0  0  0  0  0
   21.8990  -28.1440   36.7980 H   0  0  0  0  0  0  0  0  0  0  0  0
   20.5571  -27.2886   40.0427 H   0  0  0  0  0  0  0  0  0  0  0  0
   21.5816  -25.8899   41.8198 H   0  0  0  0  0  0  0  0  0  0  0  0
   25.2576  -28.4907   43.3601 H   0  0  0  0  0  0  0  0  0  0  0  0
   24.1402  -29.8357   43.8852 H   0  0  0  0  0  0  0  0  0  0  0  0
   23.2452  -30.5174   41.0279 H   0  0  0  0  0  0  0  0  0  0  0  0
   18.9780  -32.8310   40.7050 H   0  0  0  0  0  0  0  0  0  0  0  0
   17.8059  -34.4845   39.2487 H   0  0  0  0  0  0  0  0  0  0  0  0
   18.0180  -34.3353   36.7652 H   0  0  0  0  0  0  0  0  0  0  0  0
   18.8260  -33.1330   34.9620 H   0  0  0  0  0  0  0  0  0  0  0  0
  1  2  2  0
  2  3  1  0
  3  4  1  0
  3  5  2  0
  5  6  1  0
  6  7  2  0
  7  8  1  0
  8  9  2  0
  9 10  1  0
 10 11  1  0
 10 12  1  0
 10 13  1  0
  9 14  1  0
 14 15  1  0
 15 16  1  0
 14 17  2  0
  5 18  1  0
 18 19  1  0
 19 20  2  0
 20 21  1  0
 21 22  2  0
 22 23  1  0
 23 24  1  0
 23 25  2  0
 25  2  1  0
 17  6  1  0
 25 19  1  0
  4 26  1  0
  7 27  1  0
  8 28  1  0
 15 29  1  0
 15 30  1  0
 17 31  1  0
 20 32  1  0
 21 33  1  0
 22 34  1  0
 24 35  1  0
M  END
>  <meeko>  (3) 
{"is_sidechain": [false], "free_energy": -9.536, "intermolecular_energy": -11.892, "internal_energy": -0.384}

$$$$
cand_007_out
     RDKit          3D

 35 37  0  0  0  0  0  0  0  0999 V2000
   18.7390  -33.9860   37.9510 O   0  0  0  0  0  0  0  0  0  0  0  0
   19.3680  -32.9710   37.6600 C   0  0  0  0  0  0  0  0  0  0  0  0
   19.7980  -32.0270   38.7170 C   0  0  0  0  0  0  0  0  0  0  0  0
   19.4470  -32.3360   40.0180 O   0  0  0  0  0  0  0  0  0  0  0  0
   20.4820  -30.9250   38.3550 C   0  0  0  0  0  0  0  0  0  0  0  0
   20.9500  -29.9090   39.3210 C   0  0  0  0  0  0  0  0  0  0  0  0
   22.2310  -29.9570   39.8800 C   0  0  0  0  0  0  0  0  0  0  0  0
   22.6580  -28.9730   40.7750 C   0  0  0  0  0  0  0  0  0  0  0  0
   21.8160  -27.9070   41.1330 C   0  0  0  0  0  0  0  0  0  0  0  0
   22.3080  -26.8570   42.1040 C   0  0  0  0  0  0  0  0  0  0  0  0
   23.5700  -27.1170   42.5480 F   0  0  0  0  0  0  0  0  0  0  0  0
   22.3600  -25.6160   41.5470 F   0  0  0  0  0  0  0  0  0  0  0  0
   21.5380  -26.7330   43.2200 F   0  0  0  0  0  0  0  0  0  0  0  0
   20.5250  -27.8350   40.5650 C   0  0  0  0  0  0  0  0  0  0  0  0
   19.5710  -26.7150   40.9100 C   0  0  0  0  0  0  0  0  0  0  0  0
   18.9310  -26.8980   42.1010 F   0  0  0  0  0  0  0  0  0  0  0  0
   20.1110  -28.8390   39.6670 C   0  0  0  0  0  0  0  0  0  0  0  0
   20.8060  -30.6120   37.0400 O   0  0  0  0  0  0  0  0  0  0  0  0
   20.4260  -31.4700   36.0400 C   0  0  0  0  0  0  0  0  0  0  0  0
   20.7790  -31.1190   34.7360 C   0  0  0  0  0  0  0  0  0  0  0  0
   20.4230  -31.9500   33.6720 C   0  0  0  0  0  0  0  0  0  0  0  0
   19.7130  -33.1280   33.9100 C   0  0  0  0  0  0  0  0  0  0  0  0
   19.3610  -33.4750   35.2120 C   0  0  0  0  0  0  0  0  0  0  0  0
   18.6660  -34.6420   35.3730 O   0  0  0  0  0  0  0  0  0  0  0  0
   19.7190  -32.6450   36.2770 C   0  0  0  0  0  0  0  0  0  0  0  0
   20.0440  -32.8100   40.5650 H   0  0  0  0  0  0  0  0  0  0  0  0
   22.9105  -30.7794   39.6118 H   0  0  0  0  0  0  0  0  0  0  0  0
   23.6683  -29.0338   41.2057 H   0  0  0  0  0  0  0  0  0  0  0  0
   20.1400  -25.7750   40.9604 H   0  0  0  0  0  0  0  0  0  0  0  0
   18.7996  -26.6915   40.1262 H   0  0  0  0  0  0  0  0  0  0  0  0
   19.1048  -28.7824   39.2262 H   0  0  0  0  0  0  0  0  0  0  0  0
   21.3364  -30.1897   34.5470 H   0  0  0  0  0  0  0  0  0  0  0  0
   20.7026  -31.6758   32.6441 H   0  0  0  0  0  0  0  0  0  0  0  0
   19.4320  -33.7811   33.0706 H   0  0  0  0  0  0  0  0  0  0  0  0
   17.8280  -34.7480   34.9700 H   0  0  0  0  0  0  0  0  0  0  0  0
  1  2  2  0
  2  3  1  0
  3  4  1  0
  3  5  2  0
  5  6  1  0
  6  7  2  0
  7  8  1  0
  8  9  2  0
  9 10  1  0
 10 11  1  0
 10 12  1  0
 10 13  1  0
  9 14  1  0
 14 15  1  0
 15 16  1  0
 14 17  2  0
  5 18  1  0
 18 19  1  0
 19 20  2  0
 20 21  1  0
 21 22  2  0
 22 23  1  0
 23 24  1  0
 23 25  2  0
 25  2  1  0
 17  6  1  0
 25 19  1  0
  4 26  1  0
  7 27  1  0
  8 28  1  0
 15 29  1  0
 15 30  1  0
 17 31  1  0
 20 32  1  0
 21 33  1  0
 22 34  1  0
 24 35  1  0
M  END
>  <meeko>  (4) 
{"is_sidechain": [false], "free_energy": -8.852, "intermolecular_energy": -10.924, "internal_energy": -0.508}

$$$$
cand_007_out
     RDKit          3D

 35 37  0  0  0  0  0  0  0  0999 V2000
   18.7260  -34.2580   37.7390 O   0  0  0  0  0  0  0  0  0  0  0  0
   19.2320  -33.1860   37.4120 C   0  0  0  0  0  0  0  0  0  0  0  0
   19.4730  -32.1310   38.4240 C   0  0  0  0  0  0  0  0  0  0  0  0
   19.0900  -32.4060   39.7240 O   0  0  0  0  0  0  0  0  0  0  0  0
   20.0270  -30.9710   38.0240 C   0  0  0  0  0  0  0  0  0  0  0  0
   20.3000  -29.8450   38.9410 C   0  0  0  0  0  0  0  0  0  0  0  0
   19.4100  -28.7750   39.0800 C   0  0  0  0  0  0  0  0  0  0  0  0
   19.6790  -27.7320   39.9690 C   0  0  0  0  0  0  0  0  0  0  0  0
   20.8470  -27.7310   40.7500 C   0  0  0  0  0  0  0  0  0  0  0  0
   21.1100  -26.5860   41.7030 C   0  0  0  0  0  0  0  0  0  0  0  0
   22.2660  -25.9280   41.4110 F   0  0  0  0  0  0  0  0  0  0  0  0
   20.1270  -25.6440   41.6680 F   0  0  0  0  0  0  0  0  0  0  0  0
   21.2150  -26.9660   43.0070 F   0  0  0  0  0  0  0  0  0  0  0  0
   21.7490  -28.8120   40.6320 C   0  0  0  0  0  0  0  0  0  0  0  0
   23.0230  -28.8690   41.4430 C   0  0  0  0  0  0  0  0  0  0  0  0
   23.7160  -30.0330   41.2780 F   0  0  0  0  0  0  0  0  0  0  0  0
   21.4610  -29.8530   39.7280 C   0  0  0  0  0  0  0  0  0  0  0  0
   20.3830  -30.6960   36.7080 O   0  0  0  0  0  0  0  0  0  0  0  0
   20.1770  -31.6570   35.7510 C   0  0  0  0  0  0  0  0  0  0  0  0
   20.5570  -31.3400   34.4460 C   0  0  0  0  0  0  0  0  0  0  0  0
   20.3750  -32.2730   33.4220 C   0  0  0  0  0  0  0  0  0  0  0  0
   19.8130  -33.5190   33.7030 C   0  0  0  0  0  0  0  0  0  0  0  0
   19.4350  -33.8320   35.0070 C   0  0  0  0  0  0  0  0  0  0  0  0
   18.8900  -35.0710   35.2110 O   0  0  0  0  0  0  0  0  0  0  0  0
   19.6180  -32.8990   36.0300 C   0  0  0  0  0  0  0  0  0  0  0  0
   19.6760  -32.2270   40.4330 H   0  0  0  0  0  0  0  0  0  0  0  0
   18.4870  -28.7547   38.4819 H   0  0  0  0  0  0  0  0  0  0  0  0
   18.9661  -26.8992   40.0591 H   0  0  0  0  0  0  0  0  0  0  0  0
   23.6686  -28.0321   41.1384 H   0  0  0  0  0  0  0  0  0  0  0  0
   22.7373  -28.8073   42.5035 H   0  0  0  0  0  0  0  0  0  0  0  0
   22.1645  -30.6937   39.6369 H   0  0  0  0  0  0  0  0  0  0  0  0
   20.9990  -30.3574   34.2241 H   0  0  0  0  0  0  0  0  0  0  0  0
   20.6751  -32.0251   32.3932 H   0  0  0  0  0  0  0  0  0  0  0  0
   19.6687  -34.2528   32.8964 H   0  0  0  0  0  0  0  0  0  0  0  0
   19.4270  -35.8350   35.1470 H   0  0  0  0  0  0  0  0  0  0  0  0
  1  2  2  0
  2  3  1  0
  3  4  1  0
  3  5  2  0
  5  6  1  0
  6  7  2  0
  7  8  1  0
  8  9  2  0
  9 10  1  0
 10 11  1  0
 10 12  1  0
 10 13  1  0
  9 14  1  0
 14 15  1  0
 15 16  1  0
 14 17  2  0
  5 18  1  0
 18 19  1  0
 19 20  2  0
 20 21  1  0
 21 22  2  0
 22 23  1  0
 23 24  1  0
 23 25  2  0
 25  2  1  0
 17  6  1  0
 25 19  1  0
  4 26  1  0
  7 27  1  0
  8 28  1  0
 15 29  1  0
 15 30  1  0
 17 31  1  0
 20 32  1  0
 21 33  1  0
 22 34  1  0
 24 35  1  0
M  END
>  <meeko>  (5) 
{"is_sidechain": [false], "free_energy": -8.749, "intermolecular_energy": -10.889, "internal_energy": -0.416}

$$$$
cand_007_out
     RDKit          3D

 35 37  0  0  0  0  0  0  0  0999 V2000
   20.4520  -25.2510   39.9730 O   0  0  0  0  0  0  0  0  0  0  0  0
   20.8620  -26.3960   40.1490 C   0  0  0  0  0  0  0  0  0  0  0  0
   20.3480  -27.5120   39.3200 C   0  0  0  0  0  0  0  0  0  0  0  0
   19.3920  -27.2030   38.3700 O   0  0  0  0  0  0  0  0  0  0  0  0
   20.8220  -28.7510   39.5470 C   0  0  0  0  0  0  0  0  0  0  0  0
   20.3740  -29.9410   38.7920 C   0  0  0  0  0  0  0  0  0  0  0  0
   20.7510  -30.1560   37.4620 C   0  0  0  0  0  0  0  0  0  0  0  0
   20.3320  -31.2970   36.7760 C   0  0  0  0  0  0  0  0  0  0  0  0
   19.5250  -32.2620   37.4030 C   0  0  0  0  0  0  0  0  0  0  0  0
   19.0880  -33.4880   36.6320 C   0  0  0  0  0  0  0  0  0  0  0  0
   17.7450  -33.7000   36.7200 F   0  0  0  0  0  0  0  0  0  0  0  0
   19.3610  -33.3910   35.3010 F   0  0  0  0  0  0  0  0  0  0  0  0
   19.6770  -34.6420   37.0490 F   0  0  0  0  0  0  0  0  0  0  0  0
   19.1480  -32.0680   38.7500 C   0  0  0  0  0  0  0  0  0  0  0  0
   18.2810  -33.0670   39.4800 C   0  0  0  0  0  0  0  0  0  0  0  0
   18.9670  -34.1660   39.9070 F   0  0  0  0  0  0  0  0  0  0  0  0
   19.5780  -30.9080   39.4240 C   0  0  0  0  0  0  0  0  0  0  0  0
   21.7650  -29.0540   40.5230 O   0  0  0  0  0  0  0  0  0  0  0  0
   22.2620  -28.0410   41.3020 C   0  0  0  0  0  0  0  0  0  0  0  0
   23.2120  -28.3890   42.2630 C   0  0  0  0  0  0  0  0  0  0  0  0
   23.7590  -27.4050   43.0900 C   0  0  0  0  0  0  0  0  0  0  0  0
   23.3560  -26.0760   42.9560 C   0  0  0  0  0  0  0  0  0  0  0  0
   22.4080  -25.7300   41.9960 C   0  0  0  0  0  0  0  0  0  0  0  0
   22.0590  -24.4100   41.9190 O   0  0  0  0  0  0  0  0  0  0  0  0
   21.8610  -26.7150   41.1690 C   0  0  0  0  0  0  0  0  0  0  0  0
   19.3440  -26.3350   38.0180 H   0  0  0  0  0  0  0  0  0  0  0  0
   21.3853  -29.4169   36.9508 H   0  0  0  0  0  0  0  0  0  0  0  0
   20.6378  -31.4432   35.7295 H   0  0  0  0  0  0  0  0  0  0  0  0
   17.8374  -32.5703   40.3555 H   0  0  0  0  0  0  0  0  0  0  0  0
   17.5167  -33.4155   38.7698 H   0  0  0  0  0  0  0  0  0  0  0  0
   19.2820  -30.7566   40.4726 H   0  0  0  0  0  0  0  0  0  0  0  0
   23.5297  -29.4367   42.3692 H   0  0  0  0  0  0  0  0  0  0  0  0
   24.5082  -27.6782   43.8476 H   0  0  0  0  0  0  0  0  0  0  0  0
   23.7867  -25.3019   43.6081 H   0  0  0  0  0  0  0  0  0  0  0  0
   22.0450  -23.8840   42.6930 H   0  0  0  0  0  0  0  0  0  0  0  0
  1  2  2  0
  2  3  1  0
  3  4  1  0
  3  5  2  0
  5  6  1  0
  6  7  2  0
  7  8  1  0
  8  9  2  0
  9 10  1  0
 10 11  1  0
 10 12  1  0
 10 13  1  0
  9 14  1  0
 14 15  1  0
 15 16  1  0
 14 17  2  0
  5 18  1  0
 18 19  1  0
 19 20  2  0
 20 21  1  0
 21 22  2  0
 22 23  1  0
 23 24  1  0
 23 25  2  0
 25  2  1  0
 17  6  1  0
 25 19  1  0
  4 26  1  0
  7 27  1  0
  8 28  1  0
 15 29  1  0
 15 30  1  0
 17 31  1  0
 20 32  1  0
 21 33  1  0
 22 34  1  0
 24 35  1  0
M  END
>  <meeko>  (6) 
{"is_sidechain": [false], "free_energy": -8.746, "intermolecular_energy": -10.85, "internal_energy": -0.451}

$$$$
cand_007_out
     RDKit          3D

 35 37  0  0  0  0  0  0  0  0999 V2000
   22.1550  -26.2000   42.8850 O   0  0  0  0  0  0  0  0  0  0  0  0
   22.4960  -27.2640   42.3730 C   0  0  0  0  0  0  0  0  0  0  0  0
   21.9160  -27.6940   41.0790 C   0  0  0  0  0  0  0  0  0  0  0  0
   20.9790  -26.8580   40.5010 O   0  0  0  0  0  0  0  0  0  0  0  0
   22.3160  -28.8670   40.5540 C   0  0  0  0  0  0  0  0  0  0  0  0
   21.7960  -29.4020   39.2780 C   0  0  0  0  0  0  0  0  0  0  0  0
   22.2150  -28.8980   38.0420 C   0  0  0  0  0  0  0  0  0  0  0  0
   21.7250  -29.4330   36.8490 C   0  0  0  0  0  0  0  0  0  0  0  0
   20.8040  -30.4950   36.8570 C   0  0  0  0  0  0  0  0  0  0  0  0
   20.2930  -31.0530   35.5470 C   0  0  0  0  0  0  0  0  0  0  0  0
   19.3500  -30.2510   34.9780 F   0  0  0  0  0  0  0  0  0  0  0  0
   21.2790  -31.1820   34.6160 F   0  0  0  0  0  0  0  0  0  0  0  0
   19.7210  -32.2840   35.6560 F   0  0  0  0  0  0  0  0  0  0  0  0
   20.3830  -31.0260   38.0960 C   0  0  0  0  0  0  0  0  0  0  0  0
   19.3940  -32.1660   38.1720 C   0  0  0  0  0  0  0  0  0  0  0  0
   19.7950  -33.1730   39.0000 F   0  0  0  0  0  0  0  0  0  0  0  0
   20.8860  -30.4700   39.2890 C   0  0  0  0  0  0  0  0  0  0  0  0
   23.2390  -29.7130   41.1590 O   0  0  0  0  0  0  0  0  0  0  0  0
   23.7970  -29.3380   42.3540 C   0  0  0  0  0  0  0  0  0  0  0  0
   24.7250  -30.2130   42.9210 C   0  0  0  0  0  0  0  0  0  0  0  0
   25.3310  -29.8930   44.1380 C   0  0  0  0  0  0  0  0  0  0  0  0
   25.0090  -28.7010   44.7880 C   0  0  0  0  0  0  0  0  0  0  0  0
   24.0820  -27.8290   44.2200 C   0  0  0  0  0  0  0  0  0  0  0  0
   23.8130  -26.6800   44.9110 O   0  0  0  0  0  0  0  0  0  0  0  0
   23.4760  -28.1500   43.0030 C   0  0  0  0  0  0  0  0  0  0  0  0
   21.2420  -26.2420   39.8450 H   0  0  0  0  0  0  0  0  0  0  0  0
   22.9390  -28.0705   38.0097 H   0  0  0  0  0  0  0  0  0  0  0  0
   22.0646  -29.0174   35.8888 H   0  0  0  0  0  0  0  0  0  0  0  0
   18.4349  -31.7724   38.5398 H   0  0  0  0  0  0  0  0  0  0  0  0
   19.3071  -32.5903   37.1609 H   0  0  0  0  0  0  0  0  0  0  0  0
   20.5569  -30.8838   40.2536 H   0  0  0  0  0  0  0  0  0  0  0  0
   24.9788  -31.1535   42.4100 H   0  0  0  0  0  0  0  0  0  0  0  0
   26.0632  -30.5817   44.5847 H   0  0  0  0  0  0  0  0  0  0  0  0
   25.4859  -28.4500   45.7469 H   0  0  0  0  0  0  0  0  0  0  0  0
   23.5680  -25.9030   44.4490 H   0  0  0  0  0  0  0  0  0  0  0  0
  1  2  2  0
  2  3  1  0
  3  4  1  0
  3  5  2  0
  5  6  1  0
  6  7  2  0
  7  8  1  0
  8  9  2  0
  9 10  1  0
 10 11  1  0
 10 12  1  0
 10 13  1  0
  9 14  1  0
 14 15  1  0
 15 16  1  0
 14 17  2  0
  5 18  1  0
 18 19  1  0
 19 20  2  0
 20 21  1  0
 21 22  2  0
 22 23  1  0
 23 24  1  0
 23 25  2  0
 25  2  1  0
 17  6  1  0
 25 19  1  0
  4 26  1  0
  7 27  1  0
  8 28  1  0
 15 29  1  0
 15 30  1  0
 17 31  1  0
 20 32  1  0
 21 33  1  0
 22 34  1  0
 24 35  1  0
M  END
>  <meeko>  (7) 
{"is_sidechain": [false], "free_energy": -8.498, "intermolecular_energy": -10.988, "internal_energy": -0.007}

$$$$
cand_007_out
     RDKit          3D

 35 37  0  0  0  0  0  0  0  0999 V2000
   24.3460  -28.7310   43.6260 O   0  0  0  0  0  0  0  0  0  0  0  0
   23.4220  -28.3330   42.9190 C   0  0  0  0  0  0  0  0  0  0  0  0
   23.0950  -29.0270   41.6520 C   0  0  0  0  0  0  0  0  0  0  0  0
   23.8780  -30.1130   41.3080 O   0  0  0  0  0  0  0  0  0  0  0  0
   22.0770  -28.5570   40.9070 C   0  0  0  0  0  0  0  0  0  0  0  0
   21.6690  -29.1600   39.6200 C   0  0  0  0  0  0  0  0  0  0  0  0
   22.1560  -28.6860   38.3970 C   0  0  0  0  0  0  0  0  0  0  0  0
   21.7720  -29.2850   37.1950 C   0  0  0  0  0  0  0  0  0  0  0  0
   20.8940  -30.3820   37.1820 C   0  0  0  0  0  0  0  0  0  0  0  0
   20.4980  -31.0090   35.8630 C   0  0  0  0  0  0  0  0  0  0  0  0
   19.4690  -30.3460   35.2660 F   0  0  0  0  0  0  0  0  0  0  0  0
   21.5170  -31.0040   34.9590 F   0  0  0  0  0  0  0  0  0  0  0  0
   20.0980  -32.3060   35.9660 F   0  0  0  0  0  0  0  0  0  0  0  0
   20.4060  -30.8820   38.4090 C   0  0  0  0  0  0  0  0  0  0  0  0
   19.4570  -32.0570   38.4630 C   0  0  0  0  0  0  0  0  0  0  0  0
   19.6360  -32.8460   39.5610 F   0  0  0  0  0  0  0  0  0  0  0  0
   20.8010  -30.2620   39.6110 C   0  0  0  0  0  0  0  0  0  0  0  0
   21.3130  -27.4470   41.2500 O   0  0  0  0  0  0  0  0  0  0  0  0
   21.5900  -26.7880   42.4200 C   0  0  0  0  0  0  0  0  0  0  0  0
   20.7930  -25.6840   42.7280 C   0  0  0  0  0  0  0  0  0  0  0  0
   21.0220  -24.9670   43.9050 C   0  0  0  0  0  0  0  0  0  0  0  0
   22.0460  -25.3530   44.7710 C   0  0  0  0  0  0  0  0  0  0  0  0
   22.8400  -26.4540   44.4610 C   0  0  0  0  0  0  0  0  0  0  0  0
   23.8260  -26.7750   45.3540 O   0  0  0  0  0  0  0  0  0  0  0  0
   22.6110  -27.1710   43.2840 C   0  0  0  0  0  0  0  0  0  0  0  0
   23.5410  -30.7700   40.7300 H   0  0  0  0  0  0  0  0  0  0  0  0
   22.8491  -27.8320   38.3819 H   0  0  0  0  0  0  0  0  0  0  0  0
   22.1626  -28.8922   36.2447 H   0  0  0  0  0  0  0  0  0  0  0  0
   18.4263  -31.6729   38.4735 H   0  0  0  0  0  0  0  0  0  0  0  0
   19.6589  -32.6793   37.5787 H   0  0  0  0  0  0  0  0  0  0  0  0
   20.4192  -30.6518   40.5662 H   0  0  0  0  0  0  0  0  0  0  0  0
   19.9862  -25.3792   42.0452 H   0  0  0  0  0  0  0  0  0  0  0  0
   20.3945  -24.0972   44.1494 H   0  0  0  0  0  0  0  0  0  0  0  0
   22.2257  -24.7880   45.6976 H   0  0  0  0  0  0  0  0  0  0  0  0
   24.3450  -27.5430   45.2220 H   0  0  0  0  0  0  0  0  0  0  0  0
  1  2  2  0
  2  3  1  0
  3  4  1  0
  3  5  2  0
  5  6  1  0
  6  7  2  0
  7  8  1  0
  8  9  2  0
  9 10  1  0
 10 11  1  0
 10 12  1  0
 10 13  1  0
  9 14  1  0
 14 15  1  0
 15 16  1  0
 14 17  2  0
  5 18  1  0
 18 19  1  0
 19 20  2  0
 20 21  1  0
 21 22  2  0
 22 23  1  0
 23 24  1  0
 23 25  2  0
 25  2  1  0
 17  6  1  0
 25 19  1  0
  4 26  1  0
  7 27  1  0
  8 28  1  0
 15 29  1  0
 15 30  1  0
 17 31  1  0
 20 32  1  0
 21 33  1  0
 22 34  1  0
 24 35  1  0
M  END
>  <meeko>  (8) 
{"is_sidechain": [false], "free_energy": -8.368, "intermolecular_energy": -10.746, "internal_energy": -0.089}

$$$$
cand_007_out
     RDKit          3D

 35 37  0  0  0  0  0  0  0  0999 V2000
   19.6160  -25.9690   36.2910 O   0  0  0  0  0  0  0  0  0  0  0  0
   20.0650  -26.9130   36.9360 C   0  0  0  0  0  0  0  0  0  0  0  0
   20.5210  -26.7180   38.3320 C   0  0  0  0  0  0  0  0  0  0  0  0
   20.4300  -25.4400   38.8520 O   0  0  0  0  0  0  0  0  0  0  0  0
   21.0070  -27.7790   39.0040 C   0  0  0  0  0  0  0  0  0  0  0  0
   21.5030  -27.7000   40.3940 C   0  0  0  0  0  0  0  0  0  0  0  0
   20.8900  -26.8820   41.3490 C   0  0  0  0  0  0  0  0  0  0  0  0
   21.3640  -26.8390   42.6630 C   0  0  0  0  0  0  0  0  0  0  0  0
   22.4630  -27.6190   43.0610 C   0  0  0  0  0  0  0  0  0  0  0  0
   22.9510  -27.5500   44.4910 C   0  0  0  0  0  0  0  0  0  0  0  0
   22.7190  -28.7070   45.1710 F   0  0  0  0  0  0  0  0  0  0  0  0
   24.2930  -27.3350   44.5720 F   0  0  0  0  0  0  0  0  0  0  0  0
   22.3700  -26.5620   45.2260 F   0  0  0  0  0  0  0  0  0  0  0  0
   23.0830  -28.4610   42.1120 C   0  0  0  0  0  0  0  0  0  0  0  0
   24.2700  -29.3230   42.4760 C   0  0  0  0  0  0  0  0  0  0  0  0
   24.0290  -30.6590   42.3400 F   0  0  0  0  0  0  0  0  0  0  0  0
   22.5930  -28.4880   40.7910 C   0  0  0  0  0  0  0  0  0  0  0  0
   21.1180  -29.0540   38.4620 O   0  0  0  0  0  0  0  0  0  0  0  0
   20.6990  -29.2660   37.1730 C   0  0  0  0  0  0  0  0  0  0  0  0
   20.8210  -30.5640   36.6730 C   0  0  0  0  0  0  0  0  0  0  0  0
   20.4120  -30.8480   35.3680 C   0  0  0  0  0  0  0  0  0  0  0  0
   19.8840  -29.8370   34.5640 C   0  0  0  0  0  0  0  0  0  0  0  0
   19.7630  -28.5430   35.0660 C   0  0  0  0  0  0  0  0  0  0  0  0
   19.2380  -27.6010   34.2240 O   0  0  0  0  0  0  0  0  0  0  0  0
   20.1720  -28.2590   36.3710 C   0  0  0  0  0  0  0  0  0  0  0  0
   19.6050  -24.9950   38.8630 H   0  0  0  0  0  0  0  0  0  0  0  0
   20.0251  -26.2657   41.0625 H   0  0  0  0  0  0  0  0  0  0  0  0
   20.8696  -26.1850   43.3964 H   0  0  0  0  0  0  0  0  0  0  0  0
   25.1120  -29.0518   41.8221 H   0  0  0  0  0  0  0  0  0  0  0  0
   24.4931  -29.1387   43.5373 H   0  0  0  0  0  0  0  0  0  0  0  0
   23.0777  -29.1437   40.0527 H   0  0  0  0  0  0  0  0  0  0  0  0
   21.2384  -31.3613   37.3056 H   0  0  0  0  0  0  0  0  0  0  0  0
   20.5063  -31.8704   34.9733 H   0  0  0  0  0  0  0  0  0  0  0  0
   19.5639  -30.0613   33.5358 H   0  0  0  0  0  0  0  0  0  0  0  0
   18.3270  -27.3890   34.2680 H   0  0  0  0  0  0  0  0  0  0  0  0
  1  2  2  0
  2  3  1  0
  3  4  1  0
  3  5  2  0
  5  6  1  0
  6  7  2  0
  7  8  1  0
  8  9  2  0
  9 10  1  0
 10 11  1  0
 10 12  1  0
 10 13  1  0
  9 14  1  0
 14 15  1  0
 15 16  1  0
 14 17  2  0
  5 18  1  0
 18 19  1  0
 19 20  2  0
 20 21  1  0
 21 22  2  0
 22 23  1  0
 23 24  1  0
 23 25  2  0
 25  2  1  0
 17  6  1  0
 25 19  1  0
  4 26  1  0
  7 27  1  0
  8 28  1  0
 15 29  1  0
 15 30  1  0
 17 31  1  0
 20 32  1  0
 21 33  1  0
 22 34  1  0
 24 35  1  0
M  END
>  <meeko>  (9) 
{"is_sidechain": [false], "free_energy": -8.345, "intermolecular_energy": -10.785, "internal_energy": -0.021}

$$$$
