cand_039_out
     RDKit          3D

 41 43  0  0  0  0  0  0  0  0999 V2000
   23.0760  -26.6310   44.8900 C   0  0  0  0  0  0  0  0  0  0  0  0
   23.8110  -26.5570   43.5590 C   0  0  0  0  0  0  0  0  0  0  0  0
   23.2060  -27.4810   42.5280 C   0  0  0  0  0  0  0  0  0  0  0  0
   22.1280  -27.0020   41.7640 C   0  0  0  0  0  0  0  0  0  0  0  0
   21.5250  -27.7980   40.7870 C   0  0  0  0  0  0  0  0  0  0  0  0
   21.9770  -29.0980   40.5470 C   0  0  0  0  0  0  0  0  0  0  0  0
   21.3410  -29.9190   39.4940 C   0  0  0  0  0  0  0  0  0  0  0  0
   20.5590  -30.9460   40.0100 O   0  0  0  0  0  0  0  0  0  0  0  0
   19.9100  -31.7860   39.1410 C   0  0  0  0  0  0  0  0  0  0  0  0
   19.1240  -32.7930   39.7020 C   0  0  0  0  0  0  0  0  0  0  0  0
   18.4370  -33.6840   38.8730 C   0  0  0  0  0  0  0  0  0  0  0  0
   18.5370  -33.5660   37.4850 C   0  0  0  0  0  0  0  0  0  0  0  0
   19.3220  -32.5610   36.9280 C   0  0  0  0  0  0  0  0  0  0  0  0
   19.3750  -32.5030   35.5630 O   0  0  0  0  0  0  0  0  0  0  0  0
   20.0080  -31.6690   37.7580 C   0  0  0  0  0  0  0  0  0  0  0  0
   20.8430  -30.5980   37.2140 C   0  0  0  0  0  0  0  0  0  0  0  0
   20.9860  -30.4350   36.0040 O   0  0  0  0  0  0  0  0  0  0  0  0
   21.5220  -29.7010   38.1790 C   0  0  0  0  0  0  0  0  0  0  0  0
   22.3200  -28.7020   37.6540 O   0  0  0  0  0  0  0  0  0  0  0  0
   23.0640  -29.5710   41.2960 C   0  0  0  0  0  0  0  0  0  0  0  0
   23.6900  -28.7810   42.2820 C   0  0  0  0  0  0  0  0  0  0  0  0
   24.8400  -29.3910   43.0520 C   0  0  0  0  0  0  0  0  0  0  0  0
   24.7830  -30.9120   43.0460 C   0  0  0  0  0  0  0  0  0  0  0  0
   23.8012  -26.5580   45.7139 H   0  0  0  0  0  0  0  0  0  0  0  0
   22.3579  -25.8006   44.9590 H   0  0  0  0  0  0  0  0  0  0  0  0
   22.5378  -27.5879   44.9590 H   0  0  0  0  0  0  0  0  0  0  0  0
   23.7623  -25.5244   43.1830 H   0  0  0  0  0  0  0  0  0  0  0  0
   24.8521  -26.8697   43.7272 H   0  0  0  0  0  0  0  0  0  0  0  0
   21.7526  -25.9828   41.9383 H   0  0  0  0  0  0  0  0  0  0  0  0
   20.6853  -27.3969   40.2004 H   0  0  0  0  0  0  0  0  0  0  0  0
   19.0452  -32.8855   40.7953 H   0  0  0  0  0  0  0  0  0  0  0  0
   17.8172  -34.4786   39.3139 H   0  0  0  0  0  0  0  0  0  0  0  0
   17.9957  -34.2669   36.8326 H   0  0  0  0  0  0  0  0  0  0  0  0
   19.2720  -33.2840   35.0570 H   0  0  0  0  0  0  0  0  0  0  0  0
   23.2510  -28.8000   37.6470 H   0  0  0  0  0  0  0  0  0  0  0  0
   23.4393  -30.5879   41.1089 H   0  0  0  0  0  0  0  0  0  0  0  0
   25.7862  -29.0687   42.5929 H   0  0  0  0  0  0  0  0  0  0  0  0
   24.7700  -29.0511   44.0958 H   0  0  0  0  0  0  0  0  0  0  0  0
   24.7691  -31.2825   44.0816 H   0  0  0  0  0  0  0  0  0  0  0  0
   23.8718  -31.2427   42.5260 H   0  0  0  0  0  0  0  0  0  0  0  0
   25.6669  -31.3100   42.5260 H   0  0  0  0  0  0  0  0  0  0  0  0
  1  2  1  0
  2  3  1  0
  3  4  2  0
  4  5  1  0
  5  6  2  0
  6  7  1  0
  7  8  1  0
  8  9  1  0
  9 10  2  0
 10 11  1  0
 11 12  2  0
 12 13  1  0
 13 14  1  0
 13 15  2  0
 15 16  1  0
 16 17  2  0
 16 18  1  0
 18 19  1  0
  6 20  1  0
 20 21  2  0
 21 22  1  0
 22 23  1  0
 21  3  1  0
 18  7  2  0
 15  9  1  0
  1 24  1  0
  1 25  1  0
  1 26  1  0
  2 27  1  0
  2 28  1  0
  4 29  1  0
  5 30  1  0
 10 31  1  0
 11 32  1  0
 12 33  1  0
 14 34  1  0
 19 35  1  0
 20 36  1  0
 22 37  1  0
 22 38  1  0
 23 39  1  0
 23 40  1  0
 23 41  1  0
M  END
>  <meeko>  (1) 
{"is_sidechain": [false], "free_energy": -9.323, "intermolecular_energy": -11.504, "internal_energy": -0.588}

$$$$
cand_039_out
     RDKit          3D

 41 43  0  0  0  0  0  0  0  0999 V2000
   23.5290  -27.8560   44.8450 C   0  0  0  0  0  0  0  0  0  0  0  0
   23.8420  -27.2410   43.4880 C   0  0  0  0  0  0  0  0  0  0  0  0
   23.1280  -27.9560   42.3650 C   0  0  0  0  0  0  0  0  0  0  0  0
   23.6900  -29.1490   41.8790 C   0  0  0  0  0  0  0  0  0  0  0  0
   23.0800  -29.8670   40.8480 C   0  0  0  0  0  0  0  0  0  0  0  0
   21.8920  -29.4130   40.2680 C   0  0  0  0  0  0  0  0  0  0  0  0
   21.2490  -30.1980   39.1920 C   0  0  0  0  0  0  0  0  0  0  0  0
   20.5120  -31.2720   39.6750 O   0  0  0  0  0  0  0  0  0  0  0  0
   19.8610  -32.0860   38.7820 C   0  0  0  0  0  0  0  0  0  0  0  0
   19.1200  -33.1420   39.3110 C   0  0  0  0  0  0  0  0  0  0  0  0
   18.4360  -34.0100   38.4560 C   0  0  0  0  0  0  0  0  0  0  0  0
   18.4930  -33.8200   37.0740 C   0  0  0  0  0  0  0  0  0  0  0  0
   19.2340  -32.7650   36.5480 C   0  0  0  0  0  0  0  0  0  0  0  0
   19.2480  -32.6370   35.1870 O   0  0  0  0  0  0  0  0  0  0  0  0
   19.9180  -31.8960   37.4040 C   0  0  0  0  0  0  0  0  0  0  0  0
   20.7080  -30.7760   36.8940 C   0  0  0  0  0  0  0  0  0  0  0  0
   20.8120  -30.5480   35.6900 O   0  0  0  0  0  0  0  0  0  0  0  0
   21.3880  -29.9090   37.8840 C   0  0  0  0  0  0  0  0  0  0  0  0
   22.1420  -28.8620   37.3900 O   0  0  0  0  0  0  0  0  0  0  0  0
   21.3210  -28.2330   40.7640 C   0  0  0  0  0  0  0  0  0  0  0  0
   21.9180  -27.4970   41.8080 C   0  0  0  0  0  0  0  0  0  0  0  0
   21.2360  -26.2240   42.2550 C   0  0  0  0  0  0  0  0  0  0  0  0
   19.7400  -26.4210   42.4540 C   0  0  0  0  0  0  0  0  0  0  0  0
   23.8729  -27.1803   45.6419 H   0  0  0  0  0  0  0  0  0  0  0  0
   22.4435  -28.0087   44.9368 H   0  0  0  0  0  0  0  0  0  0  0  0
   24.0444  -28.8234   44.9368 H   0  0  0  0  0  0  0  0  0  0  0  0
   23.5276  -26.1869   43.4947 H   0  0  0  0  0  0  0  0  0  0  0  0
   24.9245  -27.3319   43.3150 H   0  0  0  0  0  0  0  0  0  0  0  0
   24.6264  -29.5236   42.3182 H   0  0  0  0  0  0  0  0  0  0  0  0
   23.5393  -30.7997   40.4886 H   0  0  0  0  0  0  0  0  0  0  0  0
   19.0740  -33.2915   40.3998 H   0  0  0  0  0  0  0  0  0  0  0  0
   17.8519  -34.8440   38.8722 H   0  0  0  0  0  0  0  0  0  0  0  0
   17.9532  -34.5029   36.4015 H   0  0  0  0  0  0  0  0  0  0  0  0
   19.9590  -32.1970   34.7650 H   0  0  0  0  0  0  0  0  0  0  0  0
   22.7860  -29.0190   36.7280 H   0  0  0  0  0  0  0  0  0  0  0  0
   20.3794  -27.8704   40.3259 H   0  0  0  0  0  0  0  0  0  0  0  0
   21.6813  -25.8972   43.2063 H   0  0  0  0  0  0  0  0  0  0  0  0
   21.3785  -25.4672   41.4696 H   0  0  0  0  0  0  0  0  0  0  0  0
   19.5140  -26.4508   43.5301 H   0  0  0  0  0  0  0  0  0  0  0  0
   19.1951  -25.5869   41.9878 H   0  0  0  0  0  0  0  0  0  0  0  0
   19.4296  -27.3678   41.9878 H   0  0  0  0  0  0  0  0  0  0  0  0
  1  2  1  0
  2  3  1  0
  3  4  2  0
  4  5  1  0
  5  6  2  0
  6  7  1  0
  7  8  1  0
  8  9  1  0
  9 10  2  0
 10 11  1  0
 11 12  2  0
 12 13  1  0
 13 14  1  0
 13 15  2  0
 15 16  1  0
 16 17  2  0
 16 18  1  0
 18 19  1  0
  6 20  1  0
 20 21  2  0
 21 22  1  0
 22 23  1  0
 21  3  1  0
 18  7  2  0
 15  9  1  0
  1 24  1  0
  1 25  1  0
  1 26  1  0
  2 27  1  0
  2 28  1  0
  4 29  1  0
  5 30  1  0
 10 31  1  0
 11 32  1  0
 12 33  1  0
 14 34  1  0
 19 35  1  0
 20 36  1  0
 22 37  1  0
 22 38  1  0
 23 39  1  0
 23 40  1  0
 23 41  1  0
M  END
>  <meeko>  (2) 
{"is_sidechain": [false], "free_energy": -9.276, "intermolecular_energy": -11.363, "internal_energy": -0.67}

$$$$
cand_039_out
     RDKit          3D

 41 43  0  0  0  0  0  0  0  0999 V2000
   20.3790  -31.4360   34.6620 C   0  0  0  0  0  0  0  0  0  0  0  0
   19.9080  -31.9330   36.0210 C   0  0  0  0  0  0  0  0  0  0  0  0
   20.3480  -31.0170   37.1400 C   0  0  0  0  0  0  0  0  0  0  0  0
   20.9310  -29.7850   36.7950 C   0  0  0  0  0  0  0  0  0  0  0  0
   21.3530  -28.8860   37.7760 C   0  0  0  0  0  0  0  0  0  0  0  0
   21.2100  -29.1900   39.1320 C   0  0  0  0  0  0  0  0  0  0  0  0
   21.6440  -28.2160   40.1570 C   0  0  0  0  0  0  0  0  0  0  0  0
   22.4970  -28.7720   41.1030 O   0  0  0  0  0  0  0  0  0  0  0  0
   22.9760  -27.9780   42.1140 C   0  0  0  0  0  0  0  0  0  0  0  0
   23.8410  -28.5730   43.0320 C   0  0  0  0  0  0  0  0  0  0  0  0
   24.3630  -27.8190   44.0870 C   0  0  0  0  0  0  0  0  0  0  0  0
   24.0190  -26.4730   44.2220 C   0  0  0  0  0  0  0  0  0  0  0  0
   23.1550  -25.8820   43.3050 C   0  0  0  0  0  0  0  0  0  0  0  0
   22.8600  -24.5600   43.4960 O   0  0  0  0  0  0  0  0  0  0  0  0
   22.6340  -26.6350   42.2480 C   0  0  0  0  0  0  0  0  0  0  0  0
   21.7230  -26.0530   41.2630 C   0  0  0  0  0  0  0  0  0  0  0  0
   21.3680  -24.8770   41.3190 O   0  0  0  0  0  0  0  0  0  0  0  0
   21.2330  -26.9350   40.1780 C   0  0  0  0  0  0  0  0  0  0  0  0
   20.3620  -26.3780   39.2600 O   0  0  0  0  0  0  0  0  0  0  0  0
   20.6130  -30.4100   39.4780 C   0  0  0  0  0  0  0  0  0  0  0  0
   20.1740  -31.3290   38.5030 C   0  0  0  0  0  0  0  0  0  0  0  0
   19.5650  -32.6290   38.9790 C   0  0  0  0  0  0  0  0  0  0  0  0
   18.1260  -32.4460   39.4390 C   0  0  0  0  0  0  0  0  0  0  0  0
   21.1296  -30.6440   34.8012 H   0  0  0  0  0  0  0  0  0  0  0  0
   20.8259  -32.2702   34.1012 H   0  0  0  0  0  0  0  0  0  0  0  0
   19.5220  -31.0346   34.1012 H   0  0  0  0  0  0  0  0  0  0  0  0
   18.8094  -31.9885   36.0181 H   0  0  0  0  0  0  0  0  0  0  0  0
   20.3548  -32.9229   36.1954 H   0  0  0  0  0  0  0  0  0  0  0  0
   21.0568  -29.5250   35.7336 H   0  0  0  0  0  0  0  0  0  0  0  0
   21.8031  -27.9276   37.4780 H   0  0  0  0  0  0  0  0  0  0  0  0
   24.1120  -29.6338   42.9261 H   0  0  0  0  0  0  0  0  0  0  0  0
   25.0456  -28.2869   44.8116 H   0  0  0  0  0  0  0  0  0  0  0  0
   24.4303  -25.8801   45.0522 H   0  0  0  0  0  0  0  0  0  0  0  0
   23.3220  -24.0660   44.1450 H   0  0  0  0  0  0  0  0  0  0  0  0
   19.6930  -25.7870   39.5470 H   0  0  0  0  0  0  0  0  0  0  0  0
   20.4831  -30.6578   40.5418 H   0  0  0  0  0  0  0  0  0  0  0  0
   19.5847  -33.3547   38.1526 H   0  0  0  0  0  0  0  0  0  0  0  0
   20.1540  -32.9881   39.8358 H   0  0  0  0  0  0  0  0  0  0  0  0
   18.0903  -32.4415   40.5384 H   0  0  0  0  0  0  0  0  0  0  0  0
   17.7371  -31.4912   39.0555 H   0  0  0  0  0  0  0  0  0  0  0  0
   17.5105  -33.2731   39.0555 H   0  0  0  0  0  0  0  0  0  0  0  0
  1  2  1  0
  2  3  1  0
  3  4  2  0
  4  5  1  0
  5  6  2  0
  6  7  1  0
  7  8  1  0
  8  9  1  0
  9 10  2  0
 10 11  1  0
 11 12  2  0
 12 13  1  0
 13 14  1  0
 13 15  2  0
 15 16  1  0
 16 17  2  0
 16 18  1  0
 18 19  1  0
  6 20  1  0
 20 21  2  0
 21 22  1  0
 22 23  1  0
 21  3  1  0
 18  7  2  0
 15  9  1  0
  1 24  1  0
  1 25  1  0
  1 26  1  0
  2 27  1  0
  2 28  1  0
  4 29  1  0
  5 30  1  0
 10 31  1  0
 11 32  1  0
 12 33  1  0
 14 34  1  0
 19 35  1  0
 20 36  1  0
 22 37  1  0
 22 38  1  0
 23 39  1  0
 23 40  1  0
 23 41  1  0
M  END
>  <meeko>  (3) 
{"is_sidechain": [false], "free_energy": -8.761, "intermolecular_energy": -11.007, "internal_energy": -0.39}

$$$$
cand_039_out
     RDKit          3D

 41 43  0  0  0  0  0  0  0  0999 V2000
   19.8220  -26.4030   42.5960 C   0  0  0  0  0  0  0  0  0  0  0  0
   20.5490  -26.2970   41.2630 C   0  0  0  0  0  0  0  0  0  0  0  0
   20.4090  -27.5580   40.4420 C   0  0  0  0  0  0  0  0  0  0  0  0
   19.2470  -27.7170   39.6680 C   0  0  0  0  0  0  0  0  0  0  0  0
   19.0540  -28.8530   38.8790 C   0  0  0  0  0  0  0  0  0  0  0  0
   20.0150  -29.8670   38.8420 C   0  0  0  0  0  0  0  0  0  0  0  0
   19.8040  -31.0530   37.9840 C   0  0  0  0  0  0  0  0  0  0  0  0
   20.1730  -30.8350   36.6610 O   0  0  0  0  0  0  0  0  0  0  0  0
   20.0290  -31.8540   35.7550 C   0  0  0  0  0  0  0  0  0  0  0  0
   20.4270  -31.5970   34.4430 C   0  0  0  0  0  0  0  0  0  0  0  0
   20.3040  -32.5920   33.4700 C   0  0  0  0  0  0  0  0  0  0  0  0
   19.7840  -33.8430   33.8100 C   0  0  0  0  0  0  0  0  0  0  0  0
   19.3880  -34.0970   35.1200 C   0  0  0  0  0  0  0  0  0  0  0  0
   18.8880  -35.3420   35.3830 O   0  0  0  0  0  0  0  0  0  0  0  0
   19.5120  -33.1010   36.0940 C   0  0  0  0  0  0  0  0  0  0  0  0
   19.1070  -33.3270   37.4810 C   0  0  0  0  0  0  0  0  0  0  0  0
   18.6340  -34.3980   37.8550 O   0  0  0  0  0  0  0  0  0  0  0  0
   19.2860  -32.2100   38.4380 C   0  0  0  0  0  0  0  0  0  0  0  0
   18.8880  -32.4290   39.7430 O   0  0  0  0  0  0  0  0  0  0  0  0
   21.1830  -29.7020   39.5990 C   0  0  0  0  0  0  0  0  0  0  0  0
   21.3990  -28.5600   40.3970 C   0  0  0  0  0  0  0  0  0  0  0  0
   22.6810  -28.4870   41.1960 C   0  0  0  0  0  0  0  0  0  0  0  0
   23.4300  -29.8120   41.1880 C   0  0  0  0  0  0  0  0  0  0  0  0
   20.5456  -26.2975   43.4177 H   0  0  0  0  0  0  0  0  0  0  0  0
   19.0679  -25.6053   42.6668 H   0  0  0  0  0  0  0  0  0  0  0  0
   19.3271  -27.3828   42.6668 H   0  0  0  0  0  0  0  0  0  0  0  0
   20.1284  -25.4543   40.6947 H   0  0  0  0  0  0  0  0  0  0  0  0
   21.6183  -26.1421   41.4696 H   0  0  0  0  0  0  0  0  0  0  0  0
   18.4758  -26.9328   39.6839 H   0  0  0  0  0  0  0  0  0  0  0  0
   18.1362  -28.9507   38.2806 H   0  0  0  0  0  0  0  0  0  0  0  0
   20.8372  -30.6122   34.1748 H   0  0  0  0  0  0  0  0  0  0  0  0
   20.6170  -32.3900   32.4350 H   0  0  0  0  0  0  0  0  0  0  0  0
   19.6876  -34.6262   33.0437 H   0  0  0  0  0  0  0  0  0  0  0  0
   18.2330  -35.4530   36.0440 H   0  0  0  0  0  0  0  0  0  0  0  0
   17.9830  -32.5690   39.9400 H   0  0  0  0  0  0  0  0  0  0  0  0
   21.9536  -30.4864   39.5696 H   0  0  0  0  0  0  0  0  0  0  0  0
   23.3274  -27.7103   40.7613 H   0  0  0  0  0  0  0  0  0  0  0  0
   22.4207  -28.2484   42.2378 H   0  0  0  0  0  0  0  0  0  0  0  0
   23.6131  -30.1359   42.2231 H   0  0  0  0  0  0  0  0  0  0  0  0
   22.8272  -30.5708   40.6675 H   0  0  0  0  0  0  0  0  0  0  0  0
   24.3910  -29.6868   40.6675 H   0  0  0  0  0  0  0  0  0  0  0  0
  1  2  1  0
  2  3  1  0
  3  4  2  0
  4  5  1  0
  5  6  2  0
  6  7  1  0
  7  8  1  0
  8  9  1  0
  9 10  2  0
 10 11  1  0
 11 12  2  0
 12 13  1  0
 13 14  1  0
 13 15  2  0
 15 16  1  0
 16 17  2  0
 16 18  1  0
 18 19  1  0
  6 20  1  0
 20 21  2  0
 21 22  1  0
 22 23  1  0
 21  3  1  0
 18  7  2  0
 15  9  1  0
  1 24  1  0
  1 25  1  0
  1 26  1  0
  2 27  1  0
  2 28  1  0
  4 29  1  0
  5 30  1  0
 10 31  1  0
 11 32  1  0
 12 33  1  0
 14 34  1  0
 19 35  1  0
 20 36  1  0
 22 37  1  0
 22 38  1  0
 23 39  1  0
 23 40  1  0
 23 41  1  0
M  END
>  <meeko>  (4) 
{"is_sidechain": [false], "free_energy": -8.596, "intermolecular_energy": -10.548, "internal_energy": -0.646}

$$$$
cand_039_out
     RDKit          3D

 41 43  0  0  0  0  0  0  0  0999 V2000
   21.1620  -24.5060   45.3810 C   0  0  0  0  0  0  0  0  0  0  0  0
   22.3370  -25.4040   45.0240 C   0  0  0  0  0  0  0  0  0  0  0  0
   22.0740  -26.2070   43.7720 C   0  0  0  0  0  0  0  0  0  0  0  0
   20.8460  -26.0210   43.1140 C   0  0  0  0  0  0  0  0  0  0  0  0
   20.5370  -26.7240   41.9470 C   0  0  0  0  0  0  0  0  0  0  0  0
   21.4440  -27.6380   41.4040 C   0  0  0  0  0  0  0  0  0  0  0  0
   21.1100  -28.3580   40.1560 C   0  0  0  0  0  0  0  0  0  0  0  0
   20.7000  -29.6670   40.3810 O   0  0  0  0  0  0  0  0  0  0  0  0
   20.3590  -30.4490   39.3070 C   0  0  0  0  0  0  0  0  0  0  0  0
   19.9380  -31.7510   39.5800 C   0  0  0  0  0  0  0  0  0  0  0  0
   19.5780  -32.6010   38.5320 C   0  0  0  0  0  0  0  0  0  0  0  0
   19.6390  -32.1490   37.2120 C   0  0  0  0  0  0  0  0  0  0  0  0
   20.0590  -30.8490   36.9420 C   0  0  0  0  0  0  0  0  0  0  0  0
   20.0940  -30.4720   35.6290 O   0  0  0  0  0  0  0  0  0  0  0  0
   20.4180  -29.9980   37.9920 C   0  0  0  0  0  0  0  0  0  0  0  0
   20.8650  -28.6260   37.7530 C   0  0  0  0  0  0  0  0  0  0  0  0
   20.9510  -28.1580   36.6190 O   0  0  0  0  0  0  0  0  0  0  0  0
   21.2150  -27.8030   38.9340 C   0  0  0  0  0  0  0  0  0  0  0  0
   21.6490  -26.5130   38.6950 O   0  0  0  0  0  0  0  0  0  0  0  0
   22.6770  -27.8120   42.0490 C   0  0  0  0  0  0  0  0  0  0  0  0
   23.0090  -27.1070   43.2240 C   0  0  0  0  0  0  0  0  0  0  0  0
   24.3540  -27.3840   43.8580 C   0  0  0  0  0  0  0  0  0  0  0  0
   24.4630  -28.8180   44.3560 C   0  0  0  0  0  0  0  0  0  0  0  0
   21.0722  -24.4373   46.4752 H   0  0  0  0  0  0  0  0  0  0  0  0
   21.3275  -23.5021   44.9630 H   0  0  0  0  0  0  0  0  0  0  0  0
   20.2367  -24.9293   44.9630 H   0  0  0  0  0  0  0  0  0  0  0  0
   23.2271  -24.7778   44.8641 H   0  0  0  0  0  0  0  0  0  0  0  0
   22.4911  -26.1089   45.8543 H   0  0  0  0  0  0  0  0  0  0  0  0
   20.1152  -25.3091   43.5253 H   0  0  0  0  0  0  0  0  0  0  0  0
   19.5699  -26.5564   41.4504 H   0  0  0  0  0  0  0  0  0  0  0  0
   19.8897  -32.1075   40.6195 H   0  0  0  0  0  0  0  0  0  0  0  0
   19.2461  -33.6276   38.7465 H   0  0  0  0  0  0  0  0  0  0  0  0
   19.3557  -32.8189   36.3868 H   0  0  0  0  0  0  0  0  0  0  0  0
   19.7710  -31.0500   34.9660 H   0  0  0  0  0  0  0  0  0  0  0  0
   22.0000  -25.9990   39.3950 H   0  0  0  0  0  0  0  0  0  0  0  0
   23.4061  -28.5188   41.6261 H   0  0  0  0  0  0  0  0  0  0  0  0
   25.1422  -27.2060   43.1117 H   0  0  0  0  0  0  0  0  0  0  0  0
   24.4674  -26.7136   44.7227 H   0  0  0  0  0  0  0  0  0  0  0  0
   24.4635  -28.8251   45.4560 H   0  0  0  0  0  0  0  0  0  0  0  0
   23.6066  -29.4007   43.9860 H   0  0  0  0  0  0  0  0  0  0  0  0
   25.3977  -29.2646   43.9860 H   0  0  0  0  0  0  0  0  0  0  0  0
  1  2  1  0
  2  3  1  0
  3  4  2  0
  4  5  1  0
  5  6  2  0
  6  7  1  0
  7  8  1  0
  8  9  1  0
  9 10  2  0
 10 11  1  0
 11 12  2  0
 12 13  1  0
 13 14  1  0
 13 15  2  0
 15 16  1  0
 16 17  2  0
 16 18  1  0
 18 19  1  0
  6 20  1  0
 20 21  2  0
 21 22  1  0
 22 23  1  0
 21  3  1  0
 18  7  2  0
 15  9  1  0
  1 24  1  0
  1 25  1  0
  1 26  1  0
  2 27  1  0
  2 28  1  0
  4 29  1  0
  5 30  1  0
 10 31  1  0
 11 32  1  0
 12 33  1  0
 14 34  1  0
 19 35  1  0
 20 36  1  0
 22 37  1  0
 22 38  1  0
 23 39  1  0
 23 40  1  0
 23 41  1  0
M  END
>  <meeko>  (5) 
{"is_sidechain": [false], "free_energy": -8.553, "intermolecular_energy": -10.532, "internal_energy": -0.608}

$$$$
cand_039_out
     RDKit          3D

 41 43  0  0  0  0  0  0  0  0999 V2000
   20.7620  -30.9230   34.8260 C   0  0  0  0  0  0  0  0  0  0  0  0
   20.0180  -31.4530   36.0430 C   0  0  0  0  0  0  0  0  0  0  0  0
   20.4870  -30.7980   37.3220 C   0  0  0  0  0  0  0  0  0  0  0  0
   21.1540  -29.5640   37.2250 C   0  0  0  0  0  0  0  0  0  0  0  0
   21.6080  -28.8980   38.3660 C   0  0  0  0  0  0  0  0  0  0  0  0
   21.4140  -29.4450   39.6370 C   0  0  0  0  0  0  0  0  0  0  0  0
   21.8830  -28.7150   40.8340 C   0  0  0  0  0  0  0  0  0  0  0  0
   21.0760  -27.6290   41.1540 O   0  0  0  0  0  0  0  0  0  0  0  0
   21.3970  -26.8620   42.2450 C   0  0  0  0  0  0  0  0  0  0  0  0
   20.5520  -25.7930   42.5390 C   0  0  0  0  0  0  0  0  0  0  0  0
   20.8230  -24.9700   43.6350 C   0  0  0  0  0  0  0  0  0  0  0  0
   21.9390  -25.2190   44.4370 C   0  0  0  0  0  0  0  0  0  0  0  0
   22.7820  -26.2870   44.1410 C   0  0  0  0  0  0  0  0  0  0  0  0
   23.8560  -26.4730   44.9670 O   0  0  0  0  0  0  0  0  0  0  0  0
   22.5090  -27.1100   43.0450 C   0  0  0  0  0  0  0  0  0  0  0  0
   23.3680  -28.2430   42.6990 C   0  0  0  0  0  0  0  0  0  0  0  0
   24.3720  -28.5210   43.3520 O   0  0  0  0  0  0  0  0  0  0  0  0
   22.9880  -29.0580   41.5220 C   0  0  0  0  0  0  0  0  0  0  0  0
   23.8140  -30.1170   41.1970 O   0  0  0  0  0  0  0  0  0  0  0  0
   20.7330  -30.6670   39.7360 C   0  0  0  0  0  0  0  0  0  0  0  0
   20.2610  -31.3520   38.5970 C   0  0  0  0  0  0  0  0  0  0  0  0
   19.5610  -32.6750   38.8080 C   0  0  0  0  0  0  0  0  0  0  0  0
   18.1590  -32.4920   39.3730 C   0  0  0  0  0  0  0  0  0  0  0  0
   21.6168  -30.3141   35.1553 H   0  0  0  0  0  0  0  0  0  0  0  0
   21.1246  -31.7674   34.2215 H   0  0  0  0  0  0  0  0  0  0  0  0
   20.0824  -30.3044   34.2215 H   0  0  0  0  0  0  0  0  0  0  0  0
   18.9433  -31.2557   35.9162 H   0  0  0  0  0  0  0  0  0  0  0  0
   20.2176  -32.5320   36.1204 H   0  0  0  0  0  0  0  0  0  0  0  0
   21.3211  -29.1157   36.2345 H   0  0  0  0  0  0  0  0  0  0  0  0
   22.1240  -27.9321   38.2627 H   0  0  0  0  0  0  0  0  0  0  0  0
   19.6722  -25.5975   41.9083 H   0  0  0  0  0  0  0  0  0  0  0  0
   20.1571  -24.1256   43.8664 H   0  0  0  0  0  0  0  0  0  0  0  0
   22.1517  -24.5724   45.3011 H   0  0  0  0  0  0  0  0  0  0  0  0
   24.5890  -26.9780   44.6740 H   0  0  0  0  0  0  0  0  0  0  0  0
   24.3810  -30.0580   40.4540 H   0  0  0  0  0  0  0  0  0  0  0  0
   20.5620  -31.1040   40.7309 H   0  0  0  0  0  0  0  0  0  0  0  0
   19.4899  -33.1976   37.8427 H   0  0  0  0  0  0  0  0  0  0  0  0
   20.1471  -33.2589   39.5330 H   0  0  0  0  0  0  0  0  0  0  0  0
   18.2030  -32.4977   40.4721 H   0  0  0  0  0  0  0  0  0  0  0  0
   17.7468  -31.5324   39.0275 H   0  0  0  0  0  0  0  0  0  0  0  0
   17.5143  -33.3136   39.0275 H   0  0  0  0  0  0  0  0  0  0  0  0
  1  2  1  0
  2  3  1  0
  3  4  2  0
  4  5  1  0
  5  6  2  0
  6  7  1  0
  7  8  1  0
  8  9  1  0
  9 10  2  0
 10 11  1  0
 11 12  2  0
 12 13  1  0
 13 14  1  0
 13 15  2  0
 15 16  1  0
 16 17  2  0
 16 18  1  0
 18 19  1  0
  6 20  1  0
 20 21  2  0
 21 22  1  0
 22 23  1  0
 21  3  1  0
 18  7  2  0
 15  9  1  0
  1 24  1  0
  1 25  1  0
  1 26  1  0
  2 27  1  0
  2 28  1  0
  4 29  1  0
  5 30  1  0
 10 31  1  0
 11 32  1  0
 12 33  1  0
 14 34  1  0
 19 35  1  0
 20 36  1  0
 22 37  1  0
 22 38  1  0
 23 39  1  0
 23 40  1  0
 23 41  1  0
M  END
>  <meeko>  (6) 
{"is_sidechain": [false], "free_energy": -8.452, "intermolecular_energy": -10.4, "internal_energy": -0.617}

$$$$
cand_039_out
     RDKit          3D

 41 43  0  0  0  0  0  0  0  0999 V2000
   23.3660  -27.6280   43.1240 C   0  0  0  0  0  0  0  0  0  0  0  0
   22.3750  -26.9770   42.1710 C   0  0  0  0  0  0  0  0  0  0  0  0
   21.8190  -27.9660   41.1720 C   0  0  0  0  0  0  0  0  0  0  0  0
   22.6460  -29.0260   40.7620 C   0  0  0  0  0  0  0  0  0  0  0  0
   22.1950  -29.9810   39.8480 C   0  0  0  0  0  0  0  0  0  0  0  0
   20.9070  -29.9050   39.3130 C   0  0  0  0  0  0  0  0  0  0  0  0
   20.4390  -30.9370   38.3630 C   0  0  0  0  0  0  0  0  0  0  0  0
   20.7800  -30.6520   37.0460 O   0  0  0  0  0  0  0  0  0  0  0  0
   20.4070  -31.5290   36.0590 C   0  0  0  0  0  0  0  0  0  0  0  0
   20.7830  -31.2120   34.7540 C   0  0  0  0  0  0  0  0  0  0  0  0
   20.4330  -32.0620   33.7020 C   0  0  0  0  0  0  0  0  0  0  0  0
   19.7080  -33.2280   33.9560 C   0  0  0  0  0  0  0  0  0  0  0  0
   19.3340  -33.5420   35.2590 C   0  0  0  0  0  0  0  0  0  0  0  0
   18.6250  -34.6980   35.4370 O   0  0  0  0  0  0  0  0  0  0  0  0
   19.6850  -32.6920   36.3120 C   0  0  0  0  0  0  0  0  0  0  0  0
   19.3120  -32.9850   37.6960 C   0  0  0  0  0  0  0  0  0  0  0  0
   18.6670  -33.9870   37.9980 O   0  0  0  0  0  0  0  0  0  0  0  0
   19.7390  -32.0230   38.7390 C   0  0  0  0  0  0  0  0  0  0  0  0
   19.3700  -32.3030   40.0420 O   0  0  0  0  0  0  0  0  0  0  0  0
   20.0740  -28.8580   39.7350 C   0  0  0  0  0  0  0  0  0  0  0  0
   20.5090  -27.8880   40.6610 C   0  0  0  0  0  0  0  0  0  0  0  0
   19.5440  -26.7840   41.0330 C   0  0  0  0  0  0  0  0  0  0  0  0
   19.6030  -25.6230   40.0500 C   0  0  0  0  0  0  0  0  0  0  0  0
   23.0618  -27.4282   44.1621 H   0  0  0  0  0  0  0  0  0  0  0  0
   23.3833  -28.7139   42.9495 H   0  0  0  0  0  0  0  0  0  0  0  0
   24.3695  -27.2126   42.9495 H   0  0  0  0  0  0  0  0  0  0  0  0
   21.5434  -26.5567   42.7556 H   0  0  0  0  0  0  0  0  0  0  0  0
   22.9052  -26.1912   41.6131 H   0  0  0  0  0  0  0  0  0  0  0  0
   23.6654  -29.1047   41.1677 H   0  0  0  0  0  0  0  0  0  0  0  0
   22.8617  -30.8022   39.5461 H   0  0  0  0  0  0  0  0  0  0  0  0
   21.3545  -30.2938   34.5532 H   0  0  0  0  0  0  0  0  0  0  0  0
   20.7289  -31.8124   32.6724 H   0  0  0  0  0  0  0  0  0  0  0  0
   19.4330  -33.8972   33.1274 H   0  0  0  0  0  0  0  0  0  0  0  0
   17.7010  -34.7100   35.2850 H   0  0  0  0  0  0  0  0  0  0  0  0
   19.1260  -31.6070   40.6200 H   0  0  0  0  0  0  0  0  0  0  0  0
   19.0526  -28.7920   39.3320 H   0  0  0  0  0  0  0  0  0  0  0  0
   18.5225  -27.1921   41.0404 H   0  0  0  0  0  0  0  0  0  0  0  0
   19.8267  -26.4045   42.0260 H   0  0  0  0  0  0  0  0  0  0  0  0
   19.6512  -24.6746   40.6052 H   0  0  0  0  0  0  0  0  0  0  0  0
   20.4972  -25.7233   39.4173 H   0  0  0  0  0  0  0  0  0  0  0  0
   18.7032  -25.6322   39.4173 H   0  0  0  0  0  0  0  0  0  0  0  0
  1  2  1  0
  2  3  1  0
  3  4  2  0
  4  5  1  0
  5  6  2  0
  6  7  1  0
  7  8  1  0
  8  9  1  0
  9 10  2  0
 10 11  1  0
 11 12  2  0
 12 13  1  0
 13 14  1  0
 13 15  2  0
 15 16  1  0
 16 17  2  0
 16 18  1  0
 18 19  1  0
  6 20  1  0
 20 21  2  0
 21 22  1  0
 22 23  1  0
 21  3  1  0
 18  7  2  0
 15  9  1  0
  1 24  1  0
  1 25  1  0
  1 26  1  0
  2 27  1  0
  2 28  1  0
  4 29  1  0
  5 30  1  0
 10 31  1  0
 11 32  1  0
 12 33  1  0
 14 34  1  0
 19 35  1  0
 20 36  1  0
 22 37  1  0
 22 38  1  0
 23 39  1  0
 23 40  1  0
 23 41  1  0
M  END
>  <meeko>  (7) 
{"is_sidechain": [false], "free_energy": -8.352, "intermolecular_energy": -10.253, "internal_energy": -0.639}

$$$$
cand_039_out
     RDKit          3D

 41 43  0  0  0  0  0  0  0  0999 V2000
   18.3750  -33.8310   37.5290 C   0  0  0  0  0  0  0  0  0  0  0  0
   19.2900  -32.9370   36.7040 C   0  0  0  0  0  0  0  0  0  0  0  0
   19.8370  -31.7860   37.5160 C   0  0  0  0  0  0  0  0  0  0  0  0
   19.6630  -31.8200   38.9100 C   0  0  0  0  0  0  0  0  0  0  0  0
   20.1500  -30.7950   39.7240 C   0  0  0  0  0  0  0  0  0  0  0  0
   20.8220  -29.7010   39.1700 C   0  0  0  0  0  0  0  0  0  0  0  0
   21.3490  -28.6360   40.0490 C   0  0  0  0  0  0  0  0  0  0  0  0
   22.2800  -29.1050   40.9680 O   0  0  0  0  0  0  0  0  0  0  0  0
   22.8500  -28.2200   41.8470 C   0  0  0  0  0  0  0  0  0  0  0  0
   23.7910  -28.7320   42.7400 C   0  0  0  0  0  0  0  0  0  0  0  0
   24.4080  -27.8840   43.6640 C   0  0  0  0  0  0  0  0  0  0  0  0
   24.0830  -26.5260   43.6930 C   0  0  0  0  0  0  0  0  0  0  0  0
   23.1440  -26.0180   42.8000 C   0  0  0  0  0  0  0  0  0  0  0  0
   22.8730  -24.6800   42.8820 O   0  0  0  0  0  0  0  0  0  0  0  0
   22.5270  -26.8670   41.8750 C   0  0  0  0  0  0  0  0  0  0  0  0
   21.5350  -26.3740   40.9200 C   0  0  0  0  0  0  0  0  0  0  0  0
   21.1920  -25.1940   40.8880 O   0  0  0  0  0  0  0  0  0  0  0  0
   20.9470  -27.3530   39.9760 C   0  0  0  0  0  0  0  0  0  0  0  0
   20.0000  -26.8790   39.0870 O   0  0  0  0  0  0  0  0  0  0  0  0
   21.0120  -29.6750   37.7810 C   0  0  0  0  0  0  0  0  0  0  0  0
   20.5330  -30.7030   36.9430 C   0  0  0  0  0  0  0  0  0  0  0  0
   20.7670  -30.5690   35.4550 C   0  0  0  0  0  0  0  0  0  0  0  0
   19.9540  -29.4330   34.8520 C   0  0  0  0  0  0  0  0  0  0  0  0
   18.5566  -33.6535   38.5993 H   0  0  0  0  0  0  0  0  0  0  0  0
   17.3259  -33.6003   37.2919 H   0  0  0  0  0  0  0  0  0  0  0  0
   18.5812  -34.8852   37.2919 H   0  0  0  0  0  0  0  0  0  0  0  0
   20.1310  -33.5387   36.3290 H   0  0  0  0  0  0  0  0  0  0  0  0
   18.7002  -32.5187   35.8751 H   0  0  0  0  0  0  0  0  0  0  0  0
   19.1340  -32.6687   39.3680 H   0  0  0  0  0  0  0  0  0  0  0  0
   20.0034  -30.8488   40.8128 H   0  0  0  0  0  0  0  0  0  0  0  0
   24.0472  -29.8015   42.7172 H   0  0  0  0  0  0  0  0  0  0  0  0
   25.1502  -28.2866   44.3690 H   0  0  0  0  0  0  0  0  0  0  0  0
   24.5684  -25.8589   44.4205 H   0  0  0  0  0  0  0  0  0  0  0  0
   21.9940  -24.3880   43.0280 H   0  0  0  0  0  0  0  0  0  0  0  0
   19.1100  -27.1630   39.1550 H   0  0  0  0  0  0  0  0  0  0  0  0
   21.5506  -28.8276   37.3317 H   0  0  0  0  0  0  0  0  0  0  0  0
   21.8352  -30.3739   35.2793 H   0  0  0  0  0  0  0  0  0  0  0  0
   20.4505  -31.5066   34.9747 H   0  0  0  0  0  0  0  0  0  0  0  0
   19.5189  -28.8250   35.6589 H   0  0  0  0  0  0  0  0  0  0  0  0
   20.6081  -28.8037   34.2306 H   0  0  0  0  0  0  0  0  0  0  0  0
   19.1473  -29.8491   34.2306 H   0  0  0  0  0  0  0  0  0  0  0  0
  1  2  1  0
  2  3  1  0
  3  4  2  0
  4  5  1  0
  5  6  2  0
  6  7  1  0
  7  8  1  0
  8  9  1  0
  9 10  2  0
 10 11  1  0
 11 12  2  0
 12 13  1  0
 13 14  1  0
 13 15  2  0
 15 16  1  0
 16 17  2  0
 16 18  1  0
 18 19  1  0
  6 20  1  0
 20 21  2  0
 21 22  1  0
 22 23  1  0
 21  3  1  0
 18  7  2  0
 15  9  1  0
  1 24  1  0
  1 25  1  0
  1 26  1  0
  2 27  1  0
  2 28  1  0
  4 29  1  0
  5 30  1  0
 10 31  1  0
 11 32  1  0
 12 33  1  0
 14 34  1  0
 19 35  1  0
 20 36  1  0
 22 37  1  0
 22 38  1  0
 23 39  1  0
 23 40  1  0
 23 41  1  0
M  END
>  <meeko>  (8) 
{"is_sidechain": [false], "free_energy": -8.15, "intermolecular_energy": -10.13, "internal_energy": -0.514}

$$$$
cand_039_out
     RDKit          3D

 41 43  0  0  0  0  0  0  0  0999 V2000
   19.6690  -32.3610   36.3600 C   0  0  0  0  0  0  0  0  0  0  0  0
   20.2080  -30.9710   36.0530 C   0  0  0  0  0  0  0  0  0  0  0  0
   20.6380  -30.2430   37.3050 C   0  0  0  0  0  0  0  0  0  0  0  0
   20.7980  -30.9930   38.4830 C   0  0  0  0  0  0  0  0  0  0  0  0
   21.2020  -30.3870   39.6750 C   0  0  0  0  0  0  0  0  0  0  0  0
   21.4530  -29.0140   39.7290 C   0  0  0  0  0  0  0  0  0  0  0  0
   21.9000  -28.3940   40.9950 C   0  0  0  0  0  0  0  0  0  0  0  0
   21.0950  -27.3310   41.3890 O   0  0  0  0  0  0  0  0  0  0  0  0
   21.3970  -26.6640   42.5490 C   0  0  0  0  0  0  0  0  0  0  0  0
   20.5550  -25.6150   42.9150 C   0  0  0  0  0  0  0  0  0  0  0  0
   20.8080  -24.8930   44.0840 C   0  0  0  0  0  0  0  0  0  0  0  0
   21.9020  -25.2210   44.8860 C   0  0  0  0  0  0  0  0  0  0  0  0
   22.7420  -26.2690   44.5190 C   0  0  0  0  0  0  0  0  0  0  0  0
   23.7950  -26.5370   45.3490 O   0  0  0  0  0  0  0  0  0  0  0  0
   22.4880  -26.9920   43.3490 C   0  0  0  0  0  0  0  0  0  0  0  0
   23.3450  -28.1000   42.9270 C   0  0  0  0  0  0  0  0  0  0  0  0
   24.3310  -28.4440   43.5760 O   0  0  0  0  0  0  0  0  0  0  0  0
   22.9850  -28.8070   41.6760 C   0  0  0  0  0  0  0  0  0  0  0  0
   23.8100  -29.8430   41.2800 O   0  0  0  0  0  0  0  0  0  0  0  0
   21.3110  -28.2670   38.5510 C   0  0  0  0  0  0  0  0  0  0  0  0
   20.9110  -28.8610   37.3360 C   0  0  0  0  0  0  0  0  0  0  0  0
   20.7630  -27.9650   36.1270 C   0  0  0  0  0  0  0  0  0  0  0  0
   19.6750  -26.9190   36.3250 C   0  0  0  0  0  0  0  0  0  0  0  0
   19.6148  -32.5008   37.4497 H   0  0  0  0  0  0  0  0  0  0  0  0
   18.6640  -32.4686   35.9261 H   0  0  0  0  0  0  0  0  0  0  0  0
   20.3387  -33.1181   35.9261 H   0  0  0  0  0  0  0  0  0  0  0  0
   21.0743  -31.0660   35.3818 H   0  0  0  0  0  0  0  0  0  0  0  0
   19.4019  -30.3899   35.5812 H   0  0  0  0  0  0  0  0  0  0  0  0
   20.6018  -32.0752   38.4659 H   0  0  0  0  0  0  0  0  0  0  0  0
   21.3239  -30.9981   40.5815 H   0  0  0  0  0  0  0  0  0  0  0  0
   19.6921  -25.3559   42.2839 H   0  0  0  0  0  0  0  0  0  0  0  0
   20.1440  -24.0649   44.3727 H   0  0  0  0  0  0  0  0  0  0  0  0
   22.1003  -24.6525   45.8066 H   0  0  0  0  0  0  0  0  0  0  0  0
   24.6640  -26.2960   45.0960 H   0  0  0  0  0  0  0  0  0  0  0  0
   23.4400  -30.6700   41.0400 H   0  0  0  0  0  0  0  0  0  0  0  0
   21.5175  -27.1868   38.5751 H   0  0  0  0  0  0  0  0  0  0  0  0
   21.7194  -27.4531   35.9446 H   0  0  0  0  0  0  0  0  0  0  0  0
   20.4796  -28.5934   35.2698 H   0  0  0  0  0  0  0  0  0  0  0  0
   19.5102  -26.7605   37.4010 H   0  0  0  0  0  0  0  0  0  0  0  0
   19.9868  -25.9728   35.8586 H   0  0  0  0  0  0  0  0  0  0  0  0
   18.7418  -27.2677   35.8586 H   0  0  0  0  0  0  0  0  0  0  0  0
  1  2  1  0
  2  3  1  0
  3  4  2  0
  4  5  1  0
  5  6  2  0
  6  7  1  0
  7  8  1  0
  8  9  1  0
  9 10  2  0
 10 11  1  0
 11 12  2  0
 12 13  1  0
 13 14  1  0
 13 15  2  0
 15 16  1  0
 16 17  2  0
 16 18  1  0
 18 19  1  0
  6 20  1  0
 20 21  2  0
 21 22  1  0
 22 23  1  0
 21  3  1  0
 18  7  2  0
 15  9  1  0
  1 24  1  0
  1 25  1  0
  1 26  1  0
  2 27  1  0
  2 28  1  0
  4 29  1  0
  5 30  1  0
 10 31  1  0
 11 32  1  0
 12 33  1  0
 14 34  1  0
 19 35  1  0
 20 36  1  0
 22 37  1  0
 22 38  1  0
 23 39  1  0
 23 40  1  0
 23 41  1  0
M  END
>  <meeko>  (9) 
{"is_sidechain": [false], "free_energy": -7.66, "intermolecular_energy": -9.625, "internal_energy": -0.414}

$$$$
