cand_005_out
     RDKit          3D

 36 38  0  0  0  0  0  0  0  0999 V2000
   24.8460  -30.5850   43.0930 C   0  0  0  0  0  0  0  0  0  0  0  0
   24.6070  -29.2700   43.0380 C   0  0  0  0  0  0  0  0  0  0  0  0
   23.4920  -28.7010   42.2690 C   0  0  0  0  0  0  0  0  0  0  0  0
   22.9030  -29.4780   41.2550 C   0  0  0  0  0  0  0  0  0  0  0  0
   21.8470  -28.9870   40.4720 C   0  0  0  0  0  0  0  0  0  0  0  0
   21.2410  -29.8470   39.4340 C   0  0  0  0  0  0  0  0  0  0  0  0
   20.4660  -30.8710   39.9660 O   0  0  0  0  0  0  0  0  0  0  0  0
   19.8460  -31.7450   39.1090 C   0  0  0  0  0  0  0  0  0  0  0  0
   19.0660  -32.7500   39.6850 C   0  0  0  0  0  0  0  0  0  0  0  0
   18.4090  -33.6740   38.8700 C   0  0  0  0  0  0  0  0  0  0  0  0
   18.5300  -33.5940   37.4810 C   0  0  0  0  0  0  0  0  0  0  0  0
   19.3090  -32.5910   36.9100 C   0  0  0  0  0  0  0  0  0  0  0  0
   19.3850  -32.5710   35.5440 O   0  0  0  0  0  0  0  0  0  0  0  0
   19.9660  -31.6660   37.7250 C   0  0  0  0  0  0  0  0  0  0  0  0
   20.7930  -30.5960   37.1650 C   0  0  0  0  0  0  0  0  0  0  0  0
   20.9550  -30.4630   35.9540 O   0  0  0  0  0  0  0  0  0  0  0  0
   21.4420  -29.6630   38.1160 C   0  0  0  0  0  0  0  0  0  0  0  0
   22.2330  -28.6650   37.5780 O   0  0  0  0  0  0  0  0  0  0  0  0
   21.3740  -27.6970   40.7290 C   0  0  0  0  0  0  0  0  0  0  0  0
   21.9530  -26.9110   41.7300 C   0  0  0  0  0  0  0  0  0  0  0  0
   23.0180  -27.3980   42.5090 C   0  0  0  0  0  0  0  0  0  0  0  0
   23.6120  -26.5250   43.5890 C   0  0  0  0  0  0  0  0  0  0  0  0
   23.6030  -27.1130   44.8180 F   0  0  0  0  0  0  0  0  0  0  0  0
   22.9480  -25.3430   43.7510 F   0  0  0  0  0  0  0  0  0  0  0  0
   24.9070  -26.1780   43.3430 F   0  0  0  0  0  0  0  0  0  0  0  0
   25.6933  -30.9658   43.6821 H   0  0  0  0  0  0  0  0  0  0  0  0
   24.1952  -31.2855   42.5491 H   0  0  0  0  0  0  0  0  0  0  0  0
   25.2709  -28.5884   43.5899 H   0  0  0  0  0  0  0  0  0  0  0  0
   23.2793  -30.4952   41.0714 H   0  0  0  0  0  0  0  0  0  0  0  0
   18.9694  -32.8136   40.7789 H   0  0  0  0  0  0  0  0  0  0  0  0
   17.7950  -34.4664   39.3228 H   0  0  0  0  0  0  0  0  0  0  0  0
   18.0112  -34.3216   36.8396 H   0  0  0  0  0  0  0  0  0  0  0  0
   19.1990  -31.7810   35.0760 H   0  0  0  0  0  0  0  0  0  0  0  0
   21.9490  -28.2000   36.8170 H   0  0  0  0  0  0  0  0  0  0  0  0
   20.5376  -27.2961   40.1376 H   0  0  0  0  0  0  0  0  0  0  0  0
   21.5696  -25.8960   41.9111 H   0  0  0  0  0  0  0  0  0  0  0  0
  1  2  2  0
  2  3  1  0
  3  4  2  0
  4  5  1  0
  5  6  1  0
  6  7  1  0
  7  8  1  0
  8  9  2  0
  9 10  1  0
 10 11  2  0
 11 12  1  0
 12 13  1  0
 12 14  2  0
 14 15  1  0
 15 16  2  0
 15 17  1  0
 17 18  1  0
  5 19  2  0
 19 20  1  0
 20 21  2  0
 21 22  1  0
 22 23  1  0
 22 24  1  0
 22 25  1  0
 21  3  1  0
 17  6  2  0
 14  8  1  0
  1 26  1  0
  1 27  1  0
  2 28  1  0
  4 29  1  0
  9 30  1  0
 10 31  1  0
 11 32  1  0
 13 33  1  0
 18 34  1  0
 19 35  1  0
 20 36  1  0
M  END
>  <meeko>  (1) 
{"is_sidechain": [false], "free_energy": -9.927, "intermolecular_energy": -12.248, "internal_energy": -0.555}

$$$$
cand_005_out
     RDKit          3D

 36 38  0  0  0  0  0  0  0  0999 V2000
   20.1200  -26.0810   42.6690 C   0  0  0  0  0  0  0  0  0  0  0  0
   21.3810  -26.1430   42.2260 C   0  0  0  0  0  0  0  0  0  0  0  0
   22.0170  -27.4050   41.8270 C   0  0  0  0  0  0  0  0  0  0  0  0
   21.4240  -28.1680   40.8030 C   0  0  0  0  0  0  0  0  0  0  0  0
   21.9720  -29.3910   40.3870 C   0  0  0  0  0  0  0  0  0  0  0  0
   21.3310  -30.1480   39.2910 C   0  0  0  0  0  0  0  0  0  0  0  0
   20.5600  -31.2110   39.7450 O   0  0  0  0  0  0  0  0  0  0  0  0
   19.9110  -31.9980   38.8280 C   0  0  0  0  0  0  0  0  0  0  0  0
   19.1370  -33.0470   39.3280 C   0  0  0  0  0  0  0  0  0  0  0  0
   18.4510  -33.8860   38.4490 C   0  0  0  0  0  0  0  0  0  0  0  0
   18.5370  -33.6790   37.0710 C   0  0  0  0  0  0  0  0  0  0  0  0
   19.3110  -32.6320   36.5750 C   0  0  0  0  0  0  0  0  0  0  0  0
   19.3520  -32.4860   35.2160 O   0  0  0  0  0  0  0  0  0  0  0  0
   19.9970  -31.7910   37.4550 C   0  0  0  0  0  0  0  0  0  0  0  0
   20.8190  -30.6800   36.9750 C   0  0  0  0  0  0  0  0  0  0  0  0
   20.9510  -30.4360   35.7770 O   0  0  0  0  0  0  0  0  0  0  0  0
   21.5000  -29.8440   37.9910 C   0  0  0  0  0  0  0  0  0  0  0  0
   22.2870  -28.8060   37.5270 O   0  0  0  0  0  0  0  0  0  0  0  0
   23.1420  -29.8400   41.0080 C   0  0  0  0  0  0  0  0  0  0  0  0
   23.7380  -29.0960   42.0290 C   0  0  0  0  0  0  0  0  0  0  0  0
   23.1860  -27.8740   42.4540 C   0  0  0  0  0  0  0  0  0  0  0  0
   23.8640  -27.0910   43.5530 C   0  0  0  0  0  0  0  0  0  0  0  0
   24.4090  -25.9210   43.1190 F   0  0  0  0  0  0  0  0  0  0  0  0
   24.8910  -27.7710   44.1430 F   0  0  0  0  0  0  0  0  0  0  0  0
   23.0210  -26.7630   44.5730 F   0  0  0  0  0  0  0  0  0  0  0  0
   19.6852  -25.1125   42.9569 H   0  0  0  0  0  0  0  0  0  0  0  0
   19.5181  -26.9986   42.7453 H   0  0  0  0  0  0  0  0  0  0  0  0
   21.9639  -25.2126   42.1581 H   0  0  0  0  0  0  0  0  0  0  0  0
   20.5094  -27.7966   40.3176 H   0  0  0  0  0  0  0  0  0  0  0  0
   19.0681  -33.2118   40.4134 H   0  0  0  0  0  0  0  0  0  0  0  0
   17.8410  -34.7124   38.8427 H   0  0  0  0  0  0  0  0  0  0  0  0
   17.9953  -34.3405   36.3789 H   0  0  0  0  0  0  0  0  0  0  0  0
   19.6650  -33.1860   34.6780 H   0  0  0  0  0  0  0  0  0  0  0  0
   22.3330  -28.0010   38.0060 H   0  0  0  0  0  0  0  0  0  0  0  0
   23.5977  -30.7890   40.6890 H   0  0  0  0  0  0  0  0  0  0  0  0
   24.6539  -29.4718   42.5085 H   0  0  0  0  0  0  0  0  0  0  0  0
  1  2  2  0
  2  3  1  0
  3  4  2  0
  4  5  1  0
  5  6  1  0
  6  7  1  0
  7  8  1  0
  8  9  2  0
  9 10  1  0
 10 11  2  0
 11 12  1  0
 12 13  1  0
 12 14  2  0
 14 15  1  0
 15 16  2  0
 15 17  1  0
 17 18  1  0
  5 19  2  0
 19 20  1  0
 20 21  2  0
 21 22  1  0
 22 23  1  0
 22 24  1  0
 22 25  1  0
 21  3  1  0
 17  6  2  0
 14  8  1  0
  1 26  1  0
  1 27  1  0
  2 28  1  0
  4 29  1  0
  9 30  1  0
 10 31  1  0
 11 32  1  0
 13 33  1  0
 18 34  1  0
 19 35  1  0
 20 36  1  0
M  END
>  <meeko>  (2) 
{"is_sidechain": [false], "free_energy": -9.758, "intermolecular_energy": -11.99, "internal_energy": -0.605}

$$$$
cand_005_out
     RDKit          3D

 36 38  0  0  0  0  0  0  0  0999 V2000
   24.4760  -29.4200   43.9090 C   0  0  0  0  0  0  0  0  0  0  0  0
   24.3250  -28.3630   43.1030 C   0  0  0  0  0  0  0  0  0  0  0  0
   23.0380  -28.0180   42.4850 C   0  0  0  0  0  0  0  0  0  0  0  0
   22.6110  -28.7480   41.3610 C   0  0  0  0  0  0  0  0  0  0  0  0
   21.4000  -28.4570   40.7120 C   0  0  0  0  0  0  0  0  0  0  0  0
   20.9770  -29.2660   39.5500 C   0  0  0  0  0  0  0  0  0  0  0  0
   20.5080  -30.5240   39.9080 O   0  0  0  0  0  0  0  0  0  0  0  0
   20.0850  -31.3790   38.9230 C   0  0  0  0  0  0  0  0  0  0  0  0
   19.6090  -32.6270   39.3280 C   0  0  0  0  0  0  0  0  0  0  0  0
   19.1640  -33.5450   38.3750 C   0  0  0  0  0  0  0  0  0  0  0  0
   19.1930  -33.2170   37.0180 C   0  0  0  0  0  0  0  0  0  0  0  0
   19.6690  -31.9710   36.6170 C   0  0  0  0  0  0  0  0  0  0  0  0
   19.6700  -31.7150   35.2730 O   0  0  0  0  0  0  0  0  0  0  0  0
   20.1140  -31.0520   37.5710 C   0  0  0  0  0  0  0  0  0  0  0  0
   20.6200  -29.7320   37.1910 C   0  0  0  0  0  0  0  0  0  0  0  0
   20.6840  -29.3710   36.0180 O   0  0  0  0  0  0  0  0  0  0  0  0
   21.0620  -28.8300   38.2790 C   0  0  0  0  0  0  0  0  0  0  0  0
   21.5520  -27.5910   37.9100 O   0  0  0  0  0  0  0  0  0  0  0  0
   20.6080  -27.4220   41.2180 C   0  0  0  0  0  0  0  0  0  0  0  0
   21.0230  -26.6850   42.3310 C   0  0  0  0  0  0  0  0  0  0  0  0
   22.2400  -26.9690   42.9760 C   0  0  0  0  0  0  0  0  0  0  0  0
   22.6510  -26.1580   44.1830 C   0  0  0  0  0  0  0  0  0  0  0  0
   23.8750  -25.5770   44.0460 F   0  0  0  0  0  0  0  0  0  0  0  0
   22.7290  -26.8990   45.3270 F   0  0  0  0  0  0  0  0  0  0  0  0
   21.7800  -25.1490   44.4700 F   0  0  0  0  0  0  0  0  0  0  0  0
   25.4597  -29.6396   44.3496 H   0  0  0  0  0  0  0  0  0  0  0  0
   23.6165  -30.0695   44.1312 H   0  0  0  0  0  0  0  0  0  0  0  0
   25.1985  -27.7276   42.8950 H   0  0  0  0  0  0  0  0  0  0  0  0
   23.2405  -29.5662   40.9813 H   0  0  0  0  0  0  0  0  0  0  0  0
   19.5845  -32.8869   40.3966 H   0  0  0  0  0  0  0  0  0  0  0  0
   18.7897  -34.5290   38.6938 H   0  0  0  0  0  0  0  0  0  0  0  0
   18.8410  -33.9405   36.2680 H   0  0  0  0  0  0  0  0  0  0  0  0
   19.8130  -32.4120   34.6630 H   0  0  0  0  0  0  0  0  0  0  0  0
   22.2320  -27.1860   38.4120 H   0  0  0  0  0  0  0  0  0  0  0  0
   19.6484  -27.1851   40.7353 H   0  0  0  0  0  0  0  0  0  0  0  0
   20.3877  -25.8701   42.7082 H   0  0  0  0  0  0  0  0  0  0  0  0
  1  2  2  0
  2  3  1  0
  3  4  2  0
  4  5  1  0
  5  6  1  0
  6  7  1  0
  7  8  1  0
  8  9  2  0
  9 10  1  0
 10 11  2  0
 11 12  1  0
 12 13  1  0
 12 14  2  0
 14 15  1  0
 15 16  2  0
 15 17  1  0
 17 18  1  0
  5 19  2  0
 19 20  1  0
 20 21  2  0
 21 22  1  0
 22 23  1  0
 22 24  1  0
 22 25  1  0
 21  3  1  0
 17  6  2  0
 14  8  1  0
  1 26  1  0
  1 27  1  0
  2 28  1  0
  4 29  1  0
  9 30  1  0
 10 31  1  0
 11 32  1  0
 13 33  1  0
 18 34  1  0
 19 35  1  0
 20 36  1  0
M  END
>  <meeko>  (3) 
{"is_sidechain": [false], "free_energy": -9.231, "intermolecular_energy": -11.311, "internal_energy": -0.634}

$$$$
cand_005_out
     RDKit          3D

 36 38  0  0  0  0  0  0  0  0999 V2000
   23.6730  -29.9490   41.6380 C   0  0  0  0  0  0  0  0  0  0  0  0
   23.0730  -28.8070   41.2850 C   0  0  0  0  0  0  0  0  0  0  0  0
   21.7930  -28.7770   40.5650 C   0  0  0  0  0  0  0  0  0  0  0  0
   21.5010  -29.8130   39.6590 C   0  0  0  0  0  0  0  0  0  0  0  0
   20.3040  -29.8340   38.9260 C   0  0  0  0  0  0  0  0  0  0  0  0
   20.0270  -30.9560   38.0040 C   0  0  0  0  0  0  0  0  0  0  0  0
   20.3970  -30.6820   36.6930 O   0  0  0  0  0  0  0  0  0  0  0  0
   20.1920  -31.6410   35.7330 C   0  0  0  0  0  0  0  0  0  0  0  0
   20.5900  -31.3300   34.4320 C   0  0  0  0  0  0  0  0  0  0  0  0
   20.4090  -32.2600   33.4070 C   0  0  0  0  0  0  0  0  0  0  0  0
   19.8300  -33.5010   33.6820 C   0  0  0  0  0  0  0  0  0  0  0  0
   19.4320  -33.8080   34.9810 C   0  0  0  0  0  0  0  0  0  0  0  0
   18.8720  -35.0400   35.1790 O   0  0  0  0  0  0  0  0  0  0  0  0
   19.6150  -32.8770   36.0070 C   0  0  0  0  0  0  0  0  0  0  0  0
   19.2120  -33.1610   37.3850 C   0  0  0  0  0  0  0  0  0  0  0  0
   18.6890  -34.2260   37.7050 O   0  0  0  0  0  0  0  0  0  0  0  0
   19.4550  -32.1080   38.3990 C   0  0  0  0  0  0  0  0  0  0  0  0
   19.0580  -32.3800   39.6950 O   0  0  0  0  0  0  0  0  0  0  0  0
   19.3860  -28.7980   39.1250 C   0  0  0  0  0  0  0  0  0  0  0  0
   19.6650  -27.7600   40.0180 C   0  0  0  0  0  0  0  0  0  0  0  0
   20.8680  -27.7320   40.7450 C   0  0  0  0  0  0  0  0  0  0  0  0
   21.1300  -26.5990   41.7100 C   0  0  0  0  0  0  0  0  0  0  0  0
   21.2860  -27.0170   42.9960 F   0  0  0  0  0  0  0  0  0  0  0  0
   20.1210  -25.6810   41.7480 F   0  0  0  0  0  0  0  0  0  0  0  0
   22.2510  -25.8860   41.4030 F   0  0  0  0  0  0  0  0  0  0  0  0
   24.6317  -29.9229   42.1766 H   0  0  0  0  0  0  0  0  0  0  0  0
   23.2077  -30.9143   41.3897 H   0  0  0  0  0  0  0  0  0  0  0  0
   23.5567  -27.8535   41.5438 H   0  0  0  0  0  0  0  0  0  0  0  0
   22.2285  -30.6265   39.5217 H   0  0  0  0  0  0  0  0  0  0  0  0
   21.0459  -30.3528   34.2145 H   0  0  0  0  0  0  0  0  0  0  0  0
   20.7227  -32.0153   32.3815 H   0  0  0  0  0  0  0  0  0  0  0  0
   19.6886  -34.2343   32.8744 H   0  0  0  0  0  0  0  0  0  0  0  0
   18.5920  -35.5510   34.4460 H   0  0  0  0  0  0  0  0  0  0  0  0
   18.3360  -31.9170   40.0720 H   0  0  0  0  0  0  0  0  0  0  0  0
   18.4346  -28.8002   38.5729 H   0  0  0  0  0  0  0  0  0  0  0  0
   18.9315  -26.9517   40.1543 H   0  0  0  0  0  0  0  0  0  0  0  0
  1  2  2  0
  2  3  1  0
  3  4  2  0
  4  5  1  0
  5  6  1  0
  6  7  1  0
  7  8  1  0
  8  9  2  0
  9 10  1  0
 10 11  2  0
 11 12  1  0
 12 13  1  0
 12 14  2  0
 14 15  1  0
 15 16  2  0
 15 17  1  0
 17 18  1  0
  5 19  2  0
 19 20  1  0
 20 21  2  0
 21 22  1  0
 22 23  1  0
 22 24  1  0
 22 25  1  0
 21  3  1  0
 17  6  2  0
 14  8  1  0
  1 26  1  0
  1 27  1  0
  2 28  1  0
  4 29  1  0
  9 30  1  0
 10 31  1  0
 11 32  1  0
 13 33  1  0
 18 34  1  0
 19 35  1  0
 20 36  1  0
M  END
>  <meeko>  (4) 
{"is_sidechain": [false], "free_energy": -8.955, "intermolecular_energy": -10.995, "internal_energy": -0.61}

$$$$
cand_005_out
     RDKit          3D

 36 38  0  0  0  0  0  0  0  0999 V2000
   19.1540  -25.8470   40.2190 C   0  0  0  0  0  0  0  0  0  0  0  0
   19.4870  -26.8580   41.0300 C   0  0  0  0  0  0  0  0  0  0  0  0
   20.4510  -27.8960   40.6440 C   0  0  0  0  0  0  0  0  0  0  0  0
   20.0430  -28.8970   39.7420 C   0  0  0  0  0  0  0  0  0  0  0  0
   20.9090  -29.9280   39.3470 C   0  0  0  0  0  0  0  0  0  0  0  0
   20.4470  -30.9440   38.3780 C   0  0  0  0  0  0  0  0  0  0  0  0
   20.7760  -30.6280   37.0650 O   0  0  0  0  0  0  0  0  0  0  0  0
   20.4030  -31.4880   36.0640 C   0  0  0  0  0  0  0  0  0  0  0  0
   20.7650  -31.1390   34.7610 C   0  0  0  0  0  0  0  0  0  0  0  0
   20.4150  -31.9690   33.6950 C   0  0  0  0  0  0  0  0  0  0  0  0
   19.7050  -33.1490   33.9290 C   0  0  0  0  0  0  0  0  0  0  0  0
   19.3440  -33.4940   35.2300 C   0  0  0  0  0  0  0  0  0  0  0  0
   18.6490  -34.6610   35.3870 O   0  0  0  0  0  0  0  0  0  0  0  0
   19.6950  -32.6630   36.2970 C   0  0  0  0  0  0  0  0  0  0  0  0
   19.3360  -32.9900   37.6780 C   0  0  0  0  0  0  0  0  0  0  0  0
   18.7060  -34.0050   37.9650 O   0  0  0  0  0  0  0  0  0  0  0  0
   19.7610  -32.0450   38.7370 C   0  0  0  0  0  0  0  0  0  0  0  0
   19.4050  -32.3550   40.0360 O   0  0  0  0  0  0  0  0  0  0  0  0
   22.2090  -29.9370   39.8620 C   0  0  0  0  0  0  0  0  0  0  0  0
   22.6260  -28.9530   40.7620 C   0  0  0  0  0  0  0  0  0  0  0  0
   21.7560  -27.9240   41.1670 C   0  0  0  0  0  0  0  0  0  0  0  0
   22.2460  -26.8710   42.1330 C   0  0  0  0  0  0  0  0  0  0  0  0
   22.3160  -25.6290   41.5800 F   0  0  0  0  0  0  0  0  0  0  0  0
   23.4980  -27.1230   42.6150 F   0  0  0  0  0  0  0  0  0  0  0  0
   21.4550  -26.7510   43.2380 F   0  0  0  0  0  0  0  0  0  0  0  0
   18.4264  -25.0920   40.5515 H   0  0  0  0  0  0  0  0  0  0  0  0
   19.6079  -25.7710   39.2199 H   0  0  0  0  0  0  0  0  0  0  0  0
   19.0203  -26.9136   42.0246 H   0  0  0  0  0  0  0  0  0  0  0  0
   19.0206  -28.8702   39.3371 H   0  0  0  0  0  0  0  0  0  0  0  0
   21.3254  -30.2109   34.5752 H   0  0  0  0  0  0  0  0  0  0  0  0
   20.6988  -31.6934   32.6686 H   0  0  0  0  0  0  0  0  0  0  0  0
   19.4316  -33.8041   33.0887 H   0  0  0  0  0  0  0  0  0  0  0  0
   18.0350  -34.9330   34.7350 H   0  0  0  0  0  0  0  0  0  0  0  0
   18.6250  -31.9930   40.4080 H   0  0  0  0  0  0  0  0  0  0  0  0
   22.9105  -30.7269   39.5554 H   0  0  0  0  0  0  0  0  0  0  0  0
   23.6509  -28.9832   41.1603 H   0  0  0  0  0  0  0  0  0  0  0  0
  1  2  2  0
  2  3  1  0
  3  4  2  0
  4  5  1  0
  5  6  1  0
  6  7  1  0
  7  8  1  0
  8  9  2  0
  9 10  1  0
 10 11  2  0
 11 12  1  0
 12 13  1  0
 12 14  2  0
 14 15  1  0
 15 16  2  0
 15 17  1  0
 17 18  1  0
  5 19  2  0
 19 20  1  0
 20 21  2  0
 21 22  1  0
 22 23  1  0
 22 24  1  0
 22 25  1  0
 21  3  1  0
 17  6  2  0
 14  8  1  0
  1 26  1  0
  1 27  1  0
  2 28  1  0
  4 29  1  0
  9 30  1  0
 10 31  1  0
 11 32  1  0
 13 33  1  0
 18 34  1  0
 19 35  1  0
 20 36  1  0
M  END
>  <meeko>  (5) 
{"is_sidechain": [false], "free_energy": -8.839, "intermolecular_energy": -10.799, "internal_energy": -0.661}

$$$$
cand_005_out
     RDKit          3D

 36 38  0  0  0  0  0  0  0  0999 V2000
   19.3060  -32.8730   39.2970 C   0  0  0  0  0  0  0  0  0  0  0  0
   19.4440  -32.1280   38.1950 C   0  0  0  0  0  0  0  0  0  0  0  0
   20.3910  -31.0090   38.1100 C   0  0  0  0  0  0  0  0  0  0  0  0
   20.8980  -30.4600   39.3020 C   0  0  0  0  0  0  0  0  0  0  0  0
   21.7920  -29.3780   39.2920 C   0  0  0  0  0  0  0  0  0  0  0  0
   22.3190  -28.8480   40.5670 C   0  0  0  0  0  0  0  0  0  0  0  0
   23.2440  -29.6970   41.1640 O   0  0  0  0  0  0  0  0  0  0  0  0
   23.8110  -29.3250   42.3560 C   0  0  0  0  0  0  0  0  0  0  0  0
   24.7450  -30.2000   42.9140 C   0  0  0  0  0  0  0  0  0  0  0  0
   25.3580  -29.8830   44.1270 C   0  0  0  0  0  0  0  0  0  0  0  0
   25.0400  -28.6920   44.7830 C   0  0  0  0  0  0  0  0  0  0  0  0
   24.1070  -27.8210   44.2250 C   0  0  0  0  0  0  0  0  0  0  0  0
   23.8420  -26.6740   44.9200 O   0  0  0  0  0  0  0  0  0  0  0  0
   23.4940  -28.1390   43.0100 C   0  0  0  0  0  0  0  0  0  0  0  0
   22.5100  -27.2510   42.3890 C   0  0  0  0  0  0  0  0  0  0  0  0
   22.1710  -26.1890   42.9080 O   0  0  0  0  0  0  0  0  0  0  0  0
   21.9230  -27.6770   41.0970 C   0  0  0  0  0  0  0  0  0  0  0  0
   20.9830  -26.8390   40.5260 O   0  0  0  0  0  0  0  0  0  0  0  0
   22.1880  -28.8560   38.0560 C   0  0  0  0  0  0  0  0  0  0  0  0
   21.6890  -29.3880   36.8650 C   0  0  0  0  0  0  0  0  0  0  0  0
   20.7840  -30.4660   36.8730 C   0  0  0  0  0  0  0  0  0  0  0  0
   20.2750  -31.0220   35.5650 C   0  0  0  0  0  0  0  0  0  0  0  0
   19.6710  -32.2350   35.6990 F   0  0  0  0  0  0  0  0  0  0  0  0
   21.2610  -31.2100   34.6390 F   0  0  0  0  0  0  0  0  0  0  0  0
   19.3640  -30.2090   34.9580 F   0  0  0  0  0  0  0  0  0  0  0  0
   18.5828  -33.7017   39.3136 H   0  0  0  0  0  0  0  0  0  0  0  0
   19.9156  -32.6571   40.1868 H   0  0  0  0  0  0  0  0  0  0  0  0
   18.8236  -32.3628   37.3175 H   0  0  0  0  0  0  0  0  0  0  0  0
   20.5861  -30.8893   40.2655 H   0  0  0  0  0  0  0  0  0  0  0  0
   24.9974  -31.1382   42.3981 H   0  0  0  0  0  0  0  0  0  0  0  0
   26.0932  -30.5727   44.5672 H   0  0  0  0  0  0  0  0  0  0  0  0
   25.5251  -28.4422   45.7381 H   0  0  0  0  0  0  0  0  0  0  0  0
   24.2430  -25.8670   44.6640 H   0  0  0  0  0  0  0  0  0  0  0  0
   20.0720  -27.0510   40.5780 H   0  0  0  0  0  0  0  0  0  0  0  0
   22.8997  -28.0180   38.0218 H   0  0  0  0  0  0  0  0  0  0  0  0
   22.0086  -28.9573   35.9046 H   0  0  0  0  0  0  0  0  0  0  0  0
  1  2  2  0
  2  3  1  0
  3  4  2  0
  4  5  1  0
  5  6  1  0
  6  7  1  0
  7  8  1  0
  8  9  2  0
  9 10  1  0
 10 11  2  0
 11 12  1  0
 12 13  1  0
 12 14  2  0
 14 15  1  0
 15 16  2  0
 15 17  1  0
 17 18  1  0
  5 19  2  0
 19 20  1  0
 20 21  2  0
 21 22  1  0
 22 23  1  0
 22 24  1  0
 22 25  1  0
 21  3  1  0
 17  6  2  0
 14  8  1  0
  1 26  1  0
  1 27  1  0
  2 28  1  0
  4 29  1  0
  9 30  1  0
 10 31  1  0
 11 32  1  0
 13 33  1  0
 18 34  1  0
 19 35  1  0
 20 36  1  0
M  END
>  <meeko>  (6) 
{"is_sidechain": [false], "free_energy": -8.748, "intermolecular_energy": -11.24, "internal_energy": -0.109}

$$$$
cand_005_out
     RDKit          3D

 36 38  0  0  0  0  0  0  0  0999 V2000
   18.6520  -33.9770   39.8730 C   0  0  0  0  0  0  0  0  0  0  0  0
   18.2100  -32.8740   39.2580 C   0  0  0  0  0  0  0  0  0  0  0  0
   19.1120  -31.9230   38.5970 C   0  0  0  0  0  0  0  0  0  0  0  0
   19.5320  -30.7830   39.3080 C   0  0  0  0  0  0  0  0  0  0  0  0
   20.3790  -29.8260   38.7280 C   0  0  0  0  0  0  0  0  0  0  0  0
   20.8160  -28.6560   39.5190 C   0  0  0  0  0  0  0  0  0  0  0  0
   21.7430  -28.9840   40.5020 O   0  0  0  0  0  0  0  0  0  0  0  0
   22.2300  -27.9900   41.3110 C   0  0  0  0  0  0  0  0  0  0  0  0
   23.1680  -28.3600   42.2760 C   0  0  0  0  0  0  0  0  0  0  0  0
   23.7040  -27.3970   43.1330 C   0  0  0  0  0  0  0  0  0  0  0  0
   23.3020  -26.0640   43.0260 C   0  0  0  0  0  0  0  0  0  0  0  0
   22.3650  -25.6970   42.0630 C   0  0  0  0  0  0  0  0  0  0  0  0
   22.0170  -24.3750   42.0140 O   0  0  0  0  0  0  0  0  0  0  0  0
   21.8300  -26.6610   41.2050 C   0  0  0  0  0  0  0  0  0  0  0  0
   20.8440  -26.3170   40.1790 C   0  0  0  0  0  0  0  0  0  0  0  0
   20.4360  -25.1680   40.0270 O   0  0  0  0  0  0  0  0  0  0  0  0
   20.3440  -27.4130   39.3160 C   0  0  0  0  0  0  0  0  0  0  0  0
   19.4020  -27.0810   38.3600 O   0  0  0  0  0  0  0  0  0  0  0  0
   20.8160  -30.0340   37.4160 C   0  0  0  0  0  0  0  0  0  0  0  0
   20.4030  -31.1590   36.6970 C   0  0  0  0  0  0  0  0  0  0  0  0
   19.5460  -32.1140   37.2730 C   0  0  0  0  0  0  0  0  0  0  0  0
   19.1290  -33.3230   36.4690 C   0  0  0  0  0  0  0  0  0  0  0  0
   19.7890  -34.4580   36.8300 F   0  0  0  0  0  0  0  0  0  0  0  0
   19.3560  -33.1830   35.1300 F   0  0  0  0  0  0  0  0  0  0  0  0
   17.7990  -33.6040   36.5780 F   0  0  0  0  0  0  0  0  0  0  0  0
   17.9384  -34.6613   40.3552 H   0  0  0  0  0  0  0  0  0  0  0  0
   19.7290  -34.1995   39.8964 H   0  0  0  0  0  0  0  0  0  0  0  0
   17.1288  -32.6720   39.2473 H   0  0  0  0  0  0  0  0  0  0  0  0
   19.1881  -30.6388   40.3429 H   0  0  0  0  0  0  0  0  0  0  0  0
   23.4848  -29.4099   42.3613 H   0  0  0  0  0  0  0  0  0  0  0  0
   24.4437  -27.6886   43.8932 H   0  0  0  0  0  0  0  0  0  0  0  0
   23.7245  -25.3052   43.7010 H   0  0  0  0  0  0  0  0  0  0  0  0
   22.6750  -23.7210   41.8840 H   0  0  0  0  0  0  0  0  0  0  0  0
   19.2360  -27.6610   37.6440 H   0  0  0  0  0  0  0  0  0  0  0  0
   21.4916  -29.3048   36.9451 H   0  0  0  0  0  0  0  0  0  0  0  0
   20.7538  -31.2999   35.6640 H   0  0  0  0  0  0  0  0  0  0  0  0
  1  2  2  0
  2  3  1  0
  3  4  2  0
  4  5  1  0
  5  6  1  0
  6  7  1  0
  7  8  1  0
  8  9  2  0
  9 10  1  0
 10 11  2  0
 11 12  1  0
 12 13  1  0
 12 14  2  0
 14 15  1  0
 15 16  2  0
 15 17  1  0
 17 18  1  0
  5 19  2  0
 19 20  1  0
 20 21  2  0
 21 22  1  0
 22 23  1  0
 22 24  1  0
 22 25  1  0
 21  3  1  0
 17  6  2  0
 14  8  1  0
  1 26  1  0
  1 27  1  0
  2 28  1  0
  4 29  1  0
  9 30  1  0
 10 31  1  0
 11 32  1  0
 13 33  1  0
 18 34  1  0
 19 35  1  0
 20 36  1  0
M  END
>  <meeko>  (7) 
{"is_sidechain": [false], "free_energy": -8.717, "intermolecular_energy": -10.846, "internal_energy": -0.465}

$$$$
cand_005_out
     RDKit          3D

 36 38  0  0  0  0  0  0  0  0999 V2000
   19.2970  -32.8110   39.5320 C   0  0  0  0  0  0  0  0  0  0  0  0
   19.3180  -31.9270   38.5280 C   0  0  0  0  0  0  0  0  0  0  0  0
   20.3000  -30.8380   38.4540 C   0  0  0  0  0  0  0  0  0  0  0  0
   20.7050  -30.2100   39.6470 C   0  0  0  0  0  0  0  0  0  0  0  0
   21.6250  -29.1510   39.6450 C   0  0  0  0  0  0  0  0  0  0  0  0
   22.0420  -28.5380   40.9240 C   0  0  0  0  0  0  0  0  0  0  0  0
   21.2760  -27.4300   41.2680 O   0  0  0  0  0  0  0  0  0  0  0  0
   21.5600  -26.7650   42.4330 C   0  0  0  0  0  0  0  0  0  0  0  0
   20.7580  -25.6660   42.7470 C   0  0  0  0  0  0  0  0  0  0  0  0
   20.9940  -24.9440   43.9180 C   0  0  0  0  0  0  0  0  0  0  0  0
   22.0310  -25.3180   44.7750 C   0  0  0  0  0  0  0  0  0  0  0  0
   22.8310  -26.4140   44.4590 C   0  0  0  0  0  0  0  0  0  0  0  0
   23.8280  -26.7240   45.3410 O   0  0  0  0  0  0  0  0  0  0  0  0
   22.5930  -27.1370   43.2870 C   0  0  0  0  0  0  0  0  0  0  0  0
   23.4100  -28.2950   42.9190 C   0  0  0  0  0  0  0  0  0  0  0  0
   24.3450  -28.6820   43.6160 O   0  0  0  0  0  0  0  0  0  0  0  0
   23.0720  -28.9970   41.6590 C   0  0  0  0  0  0  0  0  0  0  0  0
   23.8570  -30.0800   41.3110 O   0  0  0  0  0  0  0  0  0  0  0  0
   22.1520  -28.7320   38.4190 C   0  0  0  0  0  0  0  0  0  0  0  0
   21.7550  -29.3420   37.2270 C   0  0  0  0  0  0  0  0  0  0  0  0
   20.8240  -30.3970   37.2260 C   0  0  0  0  0  0  0  0  0  0  0  0
   20.4270  -31.0400   35.9180 C   0  0  0  0  0  0  0  0  0  0  0  0
   20.0470  -32.3410   36.0550 F   0  0  0  0  0  0  0  0  0  0  0  0
   21.4350  -31.0540   34.9970 F   0  0  0  0  0  0  0  0  0  0  0  0
   19.3900  -30.4040   35.3040 F   0  0  0  0  0  0  0  0  0  0  0  0
   18.5418  -33.6107   39.5450 H   0  0  0  0  0  0  0  0  0  0  0  0
   20.0349  -32.7381   40.3445 H   0  0  0  0  0  0  0  0  0  0  0  0
   18.5703  -32.0197   37.7266 H   0  0  0  0  0  0  0  0  0  0  0  0
   20.2899  -30.5582   40.6043 H   0  0  0  0  0  0  0  0  0  0  0  0
   19.9413  -25.3696   42.0724 H   0  0  0  0  0  0  0  0  0  0  0  0
   20.3618  -24.0787   44.1662 H   0  0  0  0  0  0  0  0  0  0  0  0
   22.2159  -24.7485   45.6977 H   0  0  0  0  0  0  0  0  0  0  0  0
   24.6050  -26.2020   45.3740 H   0  0  0  0  0  0  0  0  0  0  0  0
   23.4580  -30.8730   41.0110 H   0  0  0  0  0  0  0  0  0  0  0  0
   22.8866  -27.9137   38.3934 H   0  0  0  0  0  0  0  0  0  0  0  0
   22.1770  -28.9920   36.2734 H   0  0  0  0  0  0  0  0  0  0  0  0
  1  2  2  0
  2  3  1  0
  3  4  2  0
  4  5  1  0
  5  6  1  0
  6  7  1  0
  7  8  1  0
  8  9  2  0
  9 10  1  0
 10 11  2  0
 11 12  1  0
 12 13  1  0
 12 14  2  0
 14 15  1  0
 15 16  2  0
 15 17  1  0
 17 18  1  0
  5 19  2  0
 19 20  1  0
 20 21  2  0
 21 22  1  0
 22 23  1  0
 22 24  1  0
 22 25  1  0
 21  3  1  0
 17  6  2  0
 14  8  1  0
  1 26  1  0
  1 27  1  0
  2 28  1  0
  4 29  1  0
  9 30  1  0
 10 31  1  0
 11 32  1  0
 13 33  1  0
 18 34  1  0
 19 35  1  0
 20 36  1  0
M  END
>  <meeko>  (8) 
{"is_sidechain": [false], "free_energy": -8.633, "intermolecular_energy": -10.9, "internal_energy": -0.307}

$$$$
cand_005_out
     RDKit          3D

 36 38  0  0  0  0  0  0  0  0999 V2000
   24.2840  -30.5090   42.6900 C   0  0  0  0  0  0  0  0  0  0  0  0
   24.3020  -29.1810   42.5280 C   0  0  0  0  0  0  0  0  0  0  0  0
   23.0990  -28.4100   42.1910 C   0  0  0  0  0  0  0  0  0  0  0  0
   22.6140  -28.4550   40.8710 C   0  0  0  0  0  0  0  0  0  0  0  0
   21.4800  -27.7270   40.4780 C   0  0  0  0  0  0  0  0  0  0  0  0
   20.9900  -27.8230   39.0870 C   0  0  0  0  0  0  0  0  0  0  0  0
   21.1130  -29.1030   38.5580 O   0  0  0  0  0  0  0  0  0  0  0  0
   20.6960  -29.3300   37.2710 C   0  0  0  0  0  0  0  0  0  0  0  0
   20.8260  -30.6310   36.7840 C   0  0  0  0  0  0  0  0  0  0  0  0
   20.4220  -30.9300   35.4810 C   0  0  0  0  0  0  0  0  0  0  0  0
   19.8890  -29.9300   34.6660 C   0  0  0  0  0  0  0  0  0  0  0  0
   19.7620  -28.6320   35.1540 C   0  0  0  0  0  0  0  0  0  0  0  0
   19.2330  -27.7020   34.3030 O   0  0  0  0  0  0  0  0  0  0  0  0
   20.1650  -28.3330   36.4580 C   0  0  0  0  0  0  0  0  0  0  0  0
   20.0480  -26.9820   37.0100 C   0  0  0  0  0  0  0  0  0  0  0  0
   19.5960  -26.0470   36.3540 O   0  0  0  0  0  0  0  0  0  0  0  0
   20.4980  -26.7720   38.4060 C   0  0  0  0  0  0  0  0  0  0  0  0
   20.3970  -25.4900   38.9130 O   0  0  0  0  0  0  0  0  0  0  0  0
   20.8220  -26.9540   41.4400 C   0  0  0  0  0  0  0  0  0  0  0  0
   21.2950  -26.8960   42.7540 C   0  0  0  0  0  0  0  0  0  0  0  0
   22.4370  -27.6170   43.1460 C   0  0  0  0  0  0  0  0  0  0  0  0
   22.9130  -27.5390   44.5780 C   0  0  0  0  0  0  0  0  0  0  0  0
   22.7120  -28.6930   45.2720 F   0  0  0  0  0  0  0  0  0  0  0  0
   22.2840  -26.5670   45.3020 F   0  0  0  0  0  0  0  0  0  0  0  0
   24.2440  -27.2590   44.6830 F   0  0  0  0  0  0  0  0  0  0  0  0
   25.2109  -31.0449   42.9424 H   0  0  0  0  0  0  0  0  0  0  0  0
   23.3423  -31.0649   42.5708 H   0  0  0  0  0  0  0  0  0  0  0  0
   25.2552  -28.6461   42.6521 H   0  0  0  0  0  0  0  0  0  0  0  0
   23.1365  -29.0761   40.1285 H   0  0  0  0  0  0  0  0  0  0  0  0
   21.2460  -31.4199   37.4253 H   0  0  0  0  0  0  0  0  0  0  0  0
   20.5240  -31.9555   35.0963 H   0  0  0  0  0  0  0  0  0  0  0  0
   19.5699  -30.1668   33.6403 H   0  0  0  0  0  0  0  0  0  0  0  0
   18.5030  -27.9250   33.7600 H   0  0  0  0  0  0  0  0  0  0  0  0
   20.6730  -24.7580   38.3980 H   0  0  0  0  0  0  0  0  0  0  0  0
   19.9229  -26.3857   41.1596 H   0  0  0  0  0  0  0  0  0  0  0  0
   20.7657  -26.2767   43.4931 H   0  0  0  0  0  0  0  0  0  0  0  0
  1  2  2  0
  2  3  1  0
  3  4  2  0
  4  5  1  0
  5  6  1  0
  6  7  1  0
  7  8  1  0
  8  9  2  0
  9 10  1  0
 10 11  2  0
 11 12  1  0
 12 13  1  0
 12 14  2  0
 14 15  1  0
 15 16  2  0
 15 17  1  0
 17 18  1  0
  5 19  2  0
 19 20  1  0
 20 21  2  0
 21 22  1  0
 22 23  1  0
 22 24  1  0
 22 25  1  0
 21  3  1  0
 17  6  2  0
 14  8  1  0
  1 26  1  0
  1 27  1  0
  2 28  1  0
  4 29  1  0
  9 30  1  0
 10 31  1  0
 11 32  1  0
 13 33  1  0
 18 34  1  0
 19 35  1  0
 20 36  1  0
M  END
>  <meeko>  (9) 
{"is_sidechain": [false], "free_energy": -8.627, "intermolecular_energy": -10.926, "internal_energy": -0.274}

$$$$
