cand_014_out
     RDKit          3D

 35 37  0  0  0  0  0  0  0  0999 V2000
   23.9330  -26.9040   43.7120 C   0  0  0  0  0  0  0  0  0  0  0  0
   23.3270  -27.7430   42.6200 C   0  0  0  0  0  0  0  0  0  0  0  0
   22.2590  -27.2210   41.8760 C   0  0  0  0  0  0  0  0  0  0  0  0
   21.6590  -27.9700   40.8610 C   0  0  0  0  0  0  0  0  0  0  0  0
   22.1100  -29.2590   40.5610 C   0  0  0  0  0  0  0  0  0  0  0  0
   21.4500  -30.0420   39.4950 C   0  0  0  0  0  0  0  0  0  0  0  0
   20.6190  -31.0390   39.9910 O   0  0  0  0  0  0  0  0  0  0  0  0
   19.9470  -31.8410   39.1040 C   0  0  0  0  0  0  0  0  0  0  0  0
   19.1370  -32.8410   39.6430 C   0  0  0  0  0  0  0  0  0  0  0  0
   18.4230  -33.6910   38.7960 C   0  0  0  0  0  0  0  0  0  0  0  0
   18.5190  -33.5420   37.4110 C   0  0  0  0  0  0  0  0  0  0  0  0
   19.3280  -32.5430   36.8760 C   0  0  0  0  0  0  0  0  0  0  0  0
   19.3750  -32.4520   35.5120 O   0  0  0  0  0  0  0  0  0  0  0  0
   20.0420  -31.6930   37.7230 C   0  0  0  0  0  0  0  0  0  0  0  0
   20.9040  -30.6310   37.2020 C   0  0  0  0  0  0  0  0  0  0  0  0
   21.0350  -30.4300   35.9960 O   0  0  0  0  0  0  0  0  0  0  0  0
   21.6260  -29.7900   38.1850 C   0  0  0  0  0  0  0  0  0  0  0  0
   22.4270  -28.7810   37.6840 O   0  0  0  0  0  0  0  0  0  0  0  0
   23.1630  -29.7900   41.3200 C   0  0  0  0  0  0  0  0  0  0  0  0
   23.7760  -29.0530   42.3520 C   0  0  0  0  0  0  0  0  0  0  0  0
   24.9240  -29.6750   43.1150 C   0  0  0  0  0  0  0  0  0  0  0  0
   25.6790  -30.5250   42.3610 F   0  0  0  0  0  0  0  0  0  0  0  0
   24.5210  -30.4090   44.1890 F   0  0  0  0  0  0  0  0  0  0  0  0
   23.6399  -27.3097   44.6915 H   0  0  0  0  0  0  0  0  0  0  0  0
   25.0291  -26.9203   43.6214 H   0  0  0  0  0  0  0  0  0  0  0  0
   23.5730  -25.8685   43.6214 H   0  0  0  0  0  0  0  0  0  0  0  0
   21.8889  -26.2085   42.0946 H   0  0  0  0  0  0  0  0  0  0  0  0
   20.8219  -27.5407   40.2910 H   0  0  0  0  0  0  0  0  0  0  0  0
   19.0610  -32.9597   40.7339 H   0  0  0  0  0  0  0  0  0  0  0  0
   17.7839  -34.4792   39.2205 H   0  0  0  0  0  0  0  0  0  0  0  0
   17.9568  -34.2123   36.7441 H   0  0  0  0  0  0  0  0  0  0  0  0
   19.4050  -33.2310   34.9900 H   0  0  0  0  0  0  0  0  0  0  0  0
   22.8770  -28.2040   38.2690 H   0  0  0  0  0  0  0  0  0  0  0  0
   23.5193  -30.8080   41.1039 H   0  0  0  0  0  0  0  0  0  0  0  0
   25.5097  -28.7983   43.4287 H   0  0  0  0  0  0  0  0  0  0  0  0
  1  2  1  0
  2  3  2  0
  3  4  1  0
  4  5  2  0
  5  6  1  0
  6  7  1  0
  7  8  1  0
  8  9  2  0
  9 10  1  0
 10 11  2  0
 11 12  1  0
 12 13  1  0
 12 14  2  0
 14 15  1  0
 15 16  2  0
 15 17  1  0
 17 18  1  0
  5 19  1  0
 19 20  2  0
 20 21  1  0
 21 22  1  0
 21 23  1  0
 20  2  1  0
 17  6  2  0
 14  8  1  0
  1 24  1  0
  1 25  1  0
  1 26  1  0
  3 27  1  0
  4 28  1  0
  9 29  1  0
 10 30  1  0
 11 31  1  0
 13 32  1  0
 18 33  1  0
 19 34  1  0
 21 35  1  0
M  END
>  <meeko>  (1) 
{"is_sidechain": [false], "free_energy": -9.524, "intermolecular_energy": -11.194, "internal_energy": -0.505}

$$$$
cand_014_out
     RDKit          3D

 35 37  0  0  0  0  0  0  0  0999 V2000
   22.4930  -26.8620   42.2280 C   0  0  0  0  0  0  0  0  0  0  0  0
   21.9300  -27.8750   41.2680 C   0  0  0  0  0  0  0  0  0  0  0  0
   22.7600  -28.9070   40.8060 C   0  0  0  0  0  0  0  0  0  0  0  0
   22.2820  -29.8620   39.9050 C   0  0  0  0  0  0  0  0  0  0  0  0
   20.9620  -29.8120   39.4440 C   0  0  0  0  0  0  0  0  0  0  0  0
   20.4820  -30.8210   38.4770 C   0  0  0  0  0  0  0  0  0  0  0  0
   20.0240  -31.9820   39.0880 O   0  0  0  0  0  0  0  0  0  0  0  0
   19.5520  -33.0020   38.3020 C   0  0  0  0  0  0  0  0  0  0  0  0
   19.1190  -34.1570   38.9540 C   0  0  0  0  0  0  0  0  0  0  0  0
   18.6240  -35.2320   38.2130 C   0  0  0  0  0  0  0  0  0  0  0  0
   18.5620  -35.1520   36.8200 C   0  0  0  0  0  0  0  0  0  0  0  0
   18.9950  -33.9990   36.1720 C   0  0  0  0  0  0  0  0  0  0  0  0
   18.9050  -33.9880   34.8070 O   0  0  0  0  0  0  0  0  0  0  0  0
   19.4900  -32.9240   36.9130 C   0  0  0  0  0  0  0  0  0  0  0  0
   19.9550  -31.6940   36.2710 C   0  0  0  0  0  0  0  0  0  0  0  0
   19.9250  -31.5430   35.0510 O   0  0  0  0  0  0  0  0  0  0  0  0
   20.4710  -30.6160   37.1470 C   0  0  0  0  0  0  0  0  0  0  0  0
   20.8950  -29.4530   36.5330 O   0  0  0  0  0  0  0  0  0  0  0  0
   20.1400  -28.7680   39.8880 C   0  0  0  0  0  0  0  0  0  0  0  0
   20.6060  -27.7910   40.7910 C   0  0  0  0  0  0  0  0  0  0  0  0
   19.6580  -26.7070   41.2510 C   0  0  0  0  0  0  0  0  0  0  0  0
   19.1120  -26.9470   42.4770 F   0  0  0  0  0  0  0  0  0  0  0  0
   18.5970  -26.5300   40.4140 F   0  0  0  0  0  0  0  0  0  0  0  0
   22.3088  -27.1935   43.2606 H   0  0  0  0  0  0  0  0  0  0  0  0
   23.5759  -26.7624   42.0626 H   0  0  0  0  0  0  0  0  0  0  0  0
   22.0058  -25.8897   42.0626 H   0  0  0  0  0  0  0  0  0  0  0  0
   23.8007  -28.9653   41.1575 H   0  0  0  0  0  0  0  0  0  0  0  0
   22.9508  -30.6618   39.5543 H   0  0  0  0  0  0  0  0  0  0  0  0
   19.1675  -34.2207   40.0511 H   0  0  0  0  0  0  0  0  0  0  0  0
   18.2826  -36.1427   38.7268 H   0  0  0  0  0  0  0  0  0  0  0  0
   18.1717  -35.9987   36.2362 H   0  0  0  0  0  0  0  0  0  0  0  0
   18.3110  -33.4000   34.3810 H   0  0  0  0  0  0  0  0  0  0  0  0
   21.3340  -28.7920   37.0310 H   0  0  0  0  0  0  0  0  0  0  0  0
   19.1042  -28.7092   39.5225 H   0  0  0  0  0  0  0  0  0  0  0  0
   20.3024  -25.8158   41.2734 H   0  0  0  0  0  0  0  0  0  0  0  0
  1  2  1  0
  2  3  2  0
  3  4  1  0
  4  5  2  0
  5  6  1  0
  6  7  1  0
  7  8  1  0
  8  9  2  0
  9 10  1  0
 10 11  2  0
 11 12  1  0
 12 13  1  0
 12 14  2  0
 14 15  1  0
 15 16  2  0
 15 17  1  0
 17 18  1  0
  5 19  1  0
 19 20  2  0
 20 21  1  0
 21 22  1  0
 21 23  1  0
 20  2  1  0
 17  6  2  0
 14  8  1  0
  1 24  1  0
  1 25  1  0
  1 26  1  0
  3 27  1  0
  4 28  1  0
  9 29  1  0
 10 30  1  0
 11 31  1  0
 13 32  1  0
 18 33  1  0
 19 34  1  0
 21 35  1  0
M  END
>  <meeko>  (2) 
{"is_sidechain": [false], "free_energy": -9.328, "intermolecular_energy": -10.919, "internal_energy": -0.551}

$$$$
cand_014_out
     RDKit          3D

 35 37  0  0  0  0  0  0  0  0999 V2000
   23.9880  -27.1820   43.5240 C   0  0  0  0  0  0  0  0  0  0  0  0
   23.2700  -27.9220   42.4280 C   0  0  0  0  0  0  0  0  0  0  0  0
   23.7700  -29.1610   42.0030 C   0  0  0  0  0  0  0  0  0  0  0  0
   23.1410  -29.8760   40.9810 C   0  0  0  0  0  0  0  0  0  0  0  0
   21.9950  -29.3730   40.3570 C   0  0  0  0  0  0  0  0  0  0  0  0
   21.3550  -30.1360   39.2660 C   0  0  0  0  0  0  0  0  0  0  0  0
   20.5730  -31.1880   39.7260 O   0  0  0  0  0  0  0  0  0  0  0  0
   19.9250  -31.9800   38.8130 C   0  0  0  0  0  0  0  0  0  0  0  0
   19.1640  -33.0360   39.3160 C   0  0  0  0  0  0  0  0  0  0  0  0
   18.4760  -33.8780   38.4400 C   0  0  0  0  0  0  0  0  0  0  0  0
   18.5480  -33.6650   37.0620 C   0  0  0  0  0  0  0  0  0  0  0  0
   19.3080  -32.6110   36.5620 C   0  0  0  0  0  0  0  0  0  0  0  0
   19.3340  -32.4580   35.2030 O   0  0  0  0  0  0  0  0  0  0  0  0
   19.9960  -31.7680   37.4380 C   0  0  0  0  0  0  0  0  0  0  0  0
   20.8060  -30.6490   36.9550 C   0  0  0  0  0  0  0  0  0  0  0  0
   20.9120  -30.3910   35.7580 O   0  0  0  0  0  0  0  0  0  0  0  0
   21.5040  -29.8210   37.9660 C   0  0  0  0  0  0  0  0  0  0  0  0
   22.2550  -28.7580   37.5000 O   0  0  0  0  0  0  0  0  0  0  0  0
   21.5080  -28.1240   40.7670 C   0  0  0  0  0  0  0  0  0  0  0  0
   22.1320  -27.3840   41.7900 C   0  0  0  0  0  0  0  0  0  0  0  0
   21.5390  -26.0560   42.2010 C   0  0  0  0  0  0  0  0  0  0  0  0
   20.5190  -26.1710   43.0990 F   0  0  0  0  0  0  0  0  0  0  0  0
   21.0200  -25.3530   41.1560 F   0  0  0  0  0  0  0  0  0  0  0  0
   23.6370  -27.5438   44.5017 H   0  0  0  0  0  0  0  0  0  0  0  0
   25.0706  -27.3561   43.4357 H   0  0  0  0  0  0  0  0  0  0  0  0
   23.7814  -26.1052   43.4357 H   0  0  0  0  0  0  0  0  0  0  0  0
   24.6698  -29.5757   42.4808 H   0  0  0  0  0  0  0  0  0  0  0  0
   23.5518  -30.8457   40.6634 H   0  0  0  0  0  0  0  0  0  0  0  0
   19.1062  -33.2049   40.4014 H   0  0  0  0  0  0  0  0  0  0  0  0
   17.8762  -34.7106   38.8362 H   0  0  0  0  0  0  0  0  0  0  0  0
   18.0053  -34.3286   36.3727 H   0  0  0  0  0  0  0  0  0  0  0  0
   20.1510  -32.4880   34.7440 H   0  0  0  0  0  0  0  0  0  0  0  0
   22.5180  -28.0770   38.0870 H   0  0  0  0  0  0  0  0  0  0  0  0
   20.6144  -27.7108   40.2764 H   0  0  0  0  0  0  0  0  0  0  0  0
   22.3992  -25.5340   42.6456 H   0  0  0  0  0  0  0  0  0  0  0  0
  1  2  1  0
  2  3  2  0
  3  4  1  0
  4  5  2  0
  5  6  1  0
  6  7  1  0
  7  8  1  0
  8  9  2  0
  9 10  1  0
 10 11  2  0
 11 12  1  0
 12 13  1  0
 12 14  2  0
 14 15  1  0
 15 16  2  0
 15 17  1  0
 17 18  1  0
  5 19  1  0
 19 20  2  0
 20 21  1  0
 21 22  1  0
 21 23  1  0
 20  2  1  0
 17  6  2  0
 14  8  1  0
  1 24  1  0
  1 25  1  0
  1 26  1  0
  3 27  1  0
  4 28  1  0
  9 29  1  0
 10 30  1  0
 11 31  1  0
 13 32  1  0
 18 33  1  0
 19 34  1  0
 21 35  1  0
M  END
>  <meeko>  (3) 
{"is_sidechain": [false], "free_energy": -9.174, "intermolecular_energy": -10.766, "internal_energy": -0.523}

$$$$
cand_014_out
     RDKit          3D

 35 37  0  0  0  0  0  0  0  0999 V2000
   19.6810  -32.2230   36.3230 C   0  0  0  0  0  0  0  0  0  0  0  0
   20.1280  -31.2260   37.3570 C   0  0  0  0  0  0  0  0  0  0  0  0
   21.0630  -30.2460   36.9970 C   0  0  0  0  0  0  0  0  0  0  0  0
   21.5140  -29.3080   37.9290 C   0  0  0  0  0  0  0  0  0  0  0  0
   21.0400  -29.3230   39.2450 C   0  0  0  0  0  0  0  0  0  0  0  0
   21.5430  -28.3330   40.2200 C   0  0  0  0  0  0  0  0  0  0  0  0
   22.4330  -28.8790   41.1370 O   0  0  0  0  0  0  0  0  0  0  0  0
   22.9720  -28.0650   42.1010 C   0  0  0  0  0  0  0  0  0  0  0  0
   23.8480  -28.6560   43.0120 C   0  0  0  0  0  0  0  0  0  0  0  0
   24.4340  -27.8830   44.0160 C   0  0  0  0  0  0  0  0  0  0  0  0
   24.1450  -26.5200   44.1100 C   0  0  0  0  0  0  0  0  0  0  0  0
   23.2710  -25.9330   43.2000 C   0  0  0  0  0  0  0  0  0  0  0  0
   23.0340  -24.5940   43.3480 O   0  0  0  0  0  0  0  0  0  0  0  0
   22.6850  -26.7060   42.1950 C   0  0  0  0  0  0  0  0  0  0  0  0
   21.7610  -26.1280   41.2190 C   0  0  0  0  0  0  0  0  0  0  0  0
   21.4630  -24.9350   41.2290 O   0  0  0  0  0  0  0  0  0  0  0  0
   21.1850  -27.0350   40.1980 C   0  0  0  0  0  0  0  0  0  0  0  0
   20.3240  -26.4770   39.2720 O   0  0  0  0  0  0  0  0  0  0  0  0
   20.1220  -30.3170   39.6110 C   0  0  0  0  0  0  0  0  0  0  0  0
   19.6610  -31.2760   38.6880 C   0  0  0  0  0  0  0  0  0  0  0  0
   18.6500  -32.3040   39.1420 C   0  0  0  0  0  0  0  0  0  0  0  0
   17.5190  -31.7560   39.6710 F   0  0  0  0  0  0  0  0  0  0  0  0
   19.1290  -33.1390   40.1060 F   0  0  0  0  0  0  0  0  0  0  0  0
   19.2804  -33.1165   36.8242 H   0  0  0  0  0  0  0  0  0  0  0  0
   18.8983  -31.7733   35.6943 H   0  0  0  0  0  0  0  0  0  0  0  0
   20.5374  -32.5082   35.6943 H   0  0  0  0  0  0  0  0  0  0  0  0
   21.4470  -30.2149   35.9667 H   0  0  0  0  0  0  0  0  0  0  0  0
   22.2500  -28.5493   37.6246 H   0  0  0  0  0  0  0  0  0  0  0  0
   24.0766  -29.7295   42.9393 H   0  0  0  0  0  0  0  0  0  0  0  0
   25.1247  -28.3485   44.7345 H   0  0  0  0  0  0  0  0  0  0  0  0
   24.6071  -25.9118   44.9015 H   0  0  0  0  0  0  0  0  0  0  0  0
   22.4350  -24.1580   42.7730 H   0  0  0  0  0  0  0  0  0  0  0  0
   19.4120  -26.6910   39.2910 H   0  0  0  0  0  0  0  0  0  0  0  0
   19.7518  -30.3490   40.6463 H   0  0  0  0  0  0  0  0  0  0  0  0
   18.4272  -32.8512   38.2142 H   0  0  0  0  0  0  0  0  0  0  0  0
  1  2  1  0
  2  3  2  0
  3  4  1  0
  4  5  2  0
  5  6  1  0
  6  7  1  0
  7  8  1  0
  8  9  2  0
  9 10  1  0
 10 11  2  0
 11 12  1  0
 12 13  1  0
 12 14  2  0
 14 15  1  0
 15 16  2  0
 15 17  1  0
 17 18  1  0
  5 19  1  0
 19 20  2  0
 20 21  1  0
 21 22  1  0
 21 23  1  0
 20  2  1  0
 17  6  2  0
 14  8  1  0
  1 24  1  0
  1 25  1  0
  1 26  1  0
  3 27  1  0
  4 28  1  0
  9 29  1  0
 10 30  1  0
 11 31  1  0
 13 32  1  0
 18 33  1  0
 19 34  1  0
 21 35  1  0
M  END
>  <meeko>  (4) 
{"is_sidechain": [false], "free_energy": -9.155, "intermolecular_energy": -10.776, "internal_energy": -0.49}

$$$$
cand_014_out
     RDKit          3D

 35 37  0  0  0  0  0  0  0  0999 V2000
   20.0990  -31.3710   36.0160 C   0  0  0  0  0  0  0  0  0  0  0  0
   20.5370  -30.6990   37.2880 C   0  0  0  0  0  0  0  0  0  0  0  0
   21.3660  -29.5690   37.2100 C   0  0  0  0  0  0  0  0  0  0  0  0
   21.8050  -28.9210   38.3670 C   0  0  0  0  0  0  0  0  0  0  0  0
   21.4270  -29.3820   39.6330 C   0  0  0  0  0  0  0  0  0  0  0  0
   21.9170  -28.6930   40.8440 C   0  0  0  0  0  0  0  0  0  0  0  0
   21.1120  -27.6270   41.2240 O   0  0  0  0  0  0  0  0  0  0  0  0
   21.4580  -26.8990   42.3340 C   0  0  0  0  0  0  0  0  0  0  0  0
   20.6320  -25.8250   42.6710 C   0  0  0  0  0  0  0  0  0  0  0  0
   20.9260  -25.0460   43.7920 C   0  0  0  0  0  0  0  0  0  0  0  0
   22.0450  -25.3380   44.5750 C   0  0  0  0  0  0  0  0  0  0  0  0
   22.8670  -26.4090   44.2360 C   0  0  0  0  0  0  0  0  0  0  0  0
   23.9440  -26.6400   45.0470 O   0  0  0  0  0  0  0  0  0  0  0  0
   22.5730  -27.1890   43.1160 C   0  0  0  0  0  0  0  0  0  0  0  0
   23.4110  -28.3230   42.7250 C   0  0  0  0  0  0  0  0  0  0  0  0
   24.4070  -28.6500   43.3670 O   0  0  0  0  0  0  0  0  0  0  0  0
   23.0180  -29.0820   41.5140 C   0  0  0  0  0  0  0  0  0  0  0  0
   23.8080  -30.1600   41.1610 O   0  0  0  0  0  0  0  0  0  0  0  0
   20.6170  -30.5240   39.7110 C   0  0  0  0  0  0  0  0  0  0  0  0
   20.1710  -31.1960   38.5560 C   0  0  0  0  0  0  0  0  0  0  0  0
   19.2770  -32.4060   38.7120 C   0  0  0  0  0  0  0  0  0  0  0  0
   18.3620  -32.2800   39.7150 F   0  0  0  0  0  0  0  0  0  0  0  0
   19.9650  -33.5480   38.9940 F   0  0  0  0  0  0  0  0  0  0  0  0
   19.5132  -32.2698   36.2590 H   0  0  0  0  0  0  0  0  0  0  0  0
   19.4793  -30.6770   35.4293 H   0  0  0  0  0  0  0  0  0  0  0  0
   20.9841  -31.6578   35.4293 H   0  0  0  0  0  0  0  0  0  0  0  0
   21.6740  -29.1887   36.2248 H   0  0  0  0  0  0  0  0  0  0  0  0
   22.4554  -28.0380   38.2819 H   0  0  0  0  0  0  0  0  0  0  0  0
   19.7511  -25.5929   42.0545 H   0  0  0  0  0  0  0  0  0  0  0  0
   20.2749  -24.2006   44.0589 H   0  0  0  0  0  0  0  0  0  0  0  0
   22.2762  -24.7232   45.4574 H   0  0  0  0  0  0  0  0  0  0  0  0
   24.7390  -26.1580   44.9190 H   0  0  0  0  0  0  0  0  0  0  0  0
   24.6980  -30.2030   41.4490 H   0  0  0  0  0  0  0  0  0  0  0  0
   20.3222  -30.9051   40.6999 H   0  0  0  0  0  0  0  0  0  0  0  0
   18.7811  -32.4695   37.7322 H   0  0  0  0  0  0  0  0  0  0  0  0
  1  2  1  0
  2  3  2  0
  3  4  1  0
  4  5  2  0
  5  6  1  0
  6  7  1  0
  7  8  1  0
  8  9  2  0
  9 10  1  0
 10 11  2  0
 11 12  1  0
 12 13  1  0
 12 14  2  0
 14 15  1  0
 15 16  2  0
 15 17  1  0
 17 18  1  0
  5 19  1  0
 19 20  2  0
 20 21  1  0
 21 22  1  0
 21 23  1  0
 20  2  1  0
 17  6  2  0
 14  8  1  0
  1 24  1  0
  1 25  1  0
  1 26  1  0
  3 27  1  0
  4 28  1  0
  9 29  1  0
 10 30  1  0
 11 31  1  0
 13 32  1  0
 18 33  1  0
 19 34  1  0
 21 35  1  0
M  END
>  <meeko>  (5) 
{"is_sidechain": [false], "free_energy": -8.709, "intermolecular_energy": -10.192, "internal_energy": -0.55}

$$$$
cand_014_out
     RDKit          3D

 35 37  0  0  0  0  0  0  0  0999 V2000
   21.5950  -25.5560   43.8350 C   0  0  0  0  0  0  0  0  0  0  0  0
   21.3870  -26.4930   42.6760 C   0  0  0  0  0  0  0  0  0  0  0  0
   20.2080  -26.3910   41.9230 C   0  0  0  0  0  0  0  0  0  0  0  0
   19.9700  -27.2480   40.8460 C   0  0  0  0  0  0  0  0  0  0  0  0
   20.9030  -28.2270   40.4900 C   0  0  0  0  0  0  0  0  0  0  0  0
   20.6230  -29.1350   39.3580 C   0  0  0  0  0  0  0  0  0  0  0  0
   20.1860  -30.3900   39.7650 O   0  0  0  0  0  0  0  0  0  0  0  0
   19.8940  -31.3300   38.8100 C   0  0  0  0  0  0  0  0  0  0  0  0
   19.4750  -32.5830   39.2610 C   0  0  0  0  0  0  0  0  0  0  0  0
   19.1590  -33.5840   38.3420 C   0  0  0  0  0  0  0  0  0  0  0  0
   19.2620  -33.3350   36.9720 C   0  0  0  0  0  0  0  0  0  0  0  0
   19.6800  -32.0850   36.5240 C   0  0  0  0  0  0  0  0  0  0  0  0
   19.7570  -31.9080   35.1700 O   0  0  0  0  0  0  0  0  0  0  0  0
   19.9960  -31.0830   37.4440 C   0  0  0  0  0  0  0  0  0  0  0  0
   20.4400  -29.7560   37.0160 C   0  0  0  0  0  0  0  0  0  0  0  0
   20.5470  -29.4550   35.8290 O   0  0  0  0  0  0  0  0  0  0  0  0
   20.7600  -28.7660   38.0710 C   0  0  0  0  0  0  0  0  0  0  0  0
   21.1650  -27.5110   37.6570 O   0  0  0  0  0  0  0  0  0  0  0  0
   22.0710  -28.3440   41.2570 C   0  0  0  0  0  0  0  0  0  0  0  0
   22.3260  -27.4940   42.3510 C   0  0  0  0  0  0  0  0  0  0  0  0
   23.6190  -27.6560   43.1190 C   0  0  0  0  0  0  0  0  0  0  0  0
   24.4490  -26.5790   43.0190 F   0  0  0  0  0  0  0  0  0  0  0  0
   24.3600  -28.7210   42.7030 F   0  0  0  0  0  0  0  0  0  0  0  0
   21.4726  -26.1075   44.7789 H   0  0  0  0  0  0  0  0  0  0  0  0
   22.6090  -25.1324   43.7867 H   0  0  0  0  0  0  0  0  0  0  0  0
   20.8554  -24.7432   43.7867 H   0  0  0  0  0  0  0  0  0  0  0  0
   19.4614  -25.6265   42.1839 H   0  0  0  0  0  0  0  0  0  0  0  0
   19.0373  -27.1517   40.2708 H   0  0  0  0  0  0  0  0  0  0  0  0
   19.3941  -32.7809   40.3400 H   0  0  0  0  0  0  0  0  0  0  0  0
   18.8282  -34.5711   38.6973 H   0  0  0  0  0  0  0  0  0  0  0  0
   19.0133  -34.1250   36.2481 H   0  0  0  0  0  0  0  0  0  0  0  0
   20.4430  -32.3220   34.6820 H   0  0  0  0  0  0  0  0  0  0  0  0
   20.8660  -26.7480   38.1120 H   0  0  0  0  0  0  0  0  0  0  0  0
   22.8070  -29.1194   40.9978 H   0  0  0  0  0  0  0  0  0  0  0  0
   23.2713  -27.7907   44.1539 H   0  0  0  0  0  0  0  0  0  0  0  0
  1  2  1  0
  2  3  2  0
  3  4  1  0
  4  5  2  0
  5  6  1  0
  6  7  1  0
  7  8  1  0
  8  9  2  0
  9 10  1  0
 10 11  2  0
 11 12  1  0
 12 13  1  0
 12 14  2  0
 14 15  1  0
 15 16  2  0
 15 17  1  0
 17 18  1  0
  5 19  1  0
 19 20  2  0
 20 21  1  0
 21 22  1  0
 21 23  1  0
 20  2  1  0
 17  6  2  0
 14  8  1  0
  1 24  1  0
  1 25  1  0
  1 26  1  0
  3 27  1  0
  4 28  1  0
  9 29  1  0
 10 30  1  0
 11 31  1  0
 13 32  1  0
 18 33  1  0
 19 34  1  0
 21 35  1  0
M  END
>  <meeko>  (6) 
{"is_sidechain": [false], "free_energy": -8.692, "intermolecular_energy": -10.265, "internal_energy": -0.457}

$$$$
cand_014_out
     RDKit          3D

 35 37  0  0  0  0  0  0  0  0999 V2000
   21.0700  -26.5050   41.5500 C   0  0  0  0  0  0  0  0  0  0  0  0
   20.8450  -27.6700   40.6250 C   0  0  0  0  0  0  0  0  0  0  0  0
   19.6680  -27.7170   39.8630 C   0  0  0  0  0  0  0  0  0  0  0  0
   19.4150  -28.7860   39.0000 C   0  0  0  0  0  0  0  0  0  0  0  0
   20.3300  -29.8360   38.8740 C   0  0  0  0  0  0  0  0  0  0  0  0
   20.0340  -30.9660   37.9690 C   0  0  0  0  0  0  0  0  0  0  0  0
   20.4110  -30.7210   36.6540 O   0  0  0  0  0  0  0  0  0  0  0  0
   20.1880  -31.6900   35.7100 C   0  0  0  0  0  0  0  0  0  0  0  0
   20.5650  -31.3980   34.3990 C   0  0  0  0  0  0  0  0  0  0  0  0
   20.3690  -32.3420   33.3900 C   0  0  0  0  0  0  0  0  0  0  0  0
   19.7960  -33.5800   33.6910 C   0  0  0  0  0  0  0  0  0  0  0  0
   19.4200  -33.8700   35.0000 C   0  0  0  0  0  0  0  0  0  0  0  0
   18.8670  -35.1000   35.2250 O   0  0  0  0  0  0  0  0  0  0  0  0
   19.6170  -32.9240   36.0090 C   0  0  0  0  0  0  0  0  0  0  0  0
   19.2360  -33.1890   37.3970 C   0  0  0  0  0  0  0  0  0  0  0  0
   18.7350  -34.2570   37.7440 O   0  0  0  0  0  0  0  0  0  0  0  0
   19.4780  -32.1170   38.3910 C   0  0  0  0  0  0  0  0  0  0  0  0
   19.1280  -32.3810   39.7020 O   0  0  0  0  0  0  0  0  0  0  0  0
   21.4950  -29.8010   39.6520 C   0  0  0  0  0  0  0  0  0  0  0  0
   21.7660  -28.7350   40.5330 C   0  0  0  0  0  0  0  0  0  0  0  0
   23.0550  -28.7470   41.3230 C   0  0  0  0  0  0  0  0  0  0  0  0
   23.7330  -29.9270   41.2390 F   0  0  0  0  0  0  0  0  0  0  0  0
   22.8700  -28.5330   42.6560 F   0  0  0  0  0  0  0  0  0  0  0  0
   21.0039  -26.8471   42.5933 H   0  0  0  0  0  0  0  0  0  0  0  0
   22.0671  -26.0784   41.3665 H   0  0  0  0  0  0  0  0  0  0  0  0
   20.3034  -25.7377   41.3665 H   0  0  0  0  0  0  0  0  0  0  0  0
   18.9347  -26.9013   39.9462 H   0  0  0  0  0  0  0  0  0  0  0  0
   18.4851  -28.8020   38.4126 H   0  0  0  0  0  0  0  0  0  0  0  0
   21.0167  -30.4238   34.1606 H   0  0  0  0  0  0  0  0  0  0  0  0
   20.6661  -32.1110   32.3564 H   0  0  0  0  0  0  0  0  0  0  0  0
   19.6422  -34.3241   32.8956 H   0  0  0  0  0  0  0  0  0  0  0  0
   17.9350  -35.2070   35.1980 H   0  0  0  0  0  0  0  0  0  0  0  0
   18.3020  -32.0900   40.0340 H   0  0  0  0  0  0  0  0  0  0  0  0
   22.2169  -30.6272   39.5730 H   0  0  0  0  0  0  0  0  0  0  0  0
   23.6286  -27.9289   40.8628 H   0  0  0  0  0  0  0  0  0  0  0  0
  1  2  1  0
  2  3  2  0
  3  4  1  0
  4  5  2  0
  5  6  1  0
  6  7  1  0
  7  8  1  0
  8  9  2  0
  9 10  1  0
 10 11  2  0
 11 12  1  0
 12 13  1  0
 12 14  2  0
 14 15  1  0
 15 16  2  0
 15 17  1  0
 17 18  1  0
  5 19  1  0
 19 20  2  0
 20 21  1  0
 21 22  1  0
 21 23  1  0
 20  2  1  0
 17  6  2  0
 14  8  1  0
  1 24  1  0
  1 25  1  0
  1 26  1  0
  3 27  1  0
  4 28  1  0
  9 29  1  0
 10 30  1  0
 11 31  1  0
 13 32  1  0
 18 33  1  0
 19 34  1  0
 21 35  1  0
M  END
>  <meeko>  (7) 
{"is_sidechain": [false], "free_energy": -8.636, "intermolecular_energy": -10.319, "internal_energy": -0.337}

$$$$
cand_014_out
     RDKit          3D

 35 37  0  0  0  0  0  0  0  0999 V2000
   21.2780  -26.5990   41.4640 C   0  0  0  0  0  0  0  0  0  0  0  0
   20.9120  -27.7220   40.5310 C   0  0  0  0  0  0  0  0  0  0  0  0
   21.7830  -28.8150   40.4070 C   0  0  0  0  0  0  0  0  0  0  0  0
   21.4870  -29.8730   39.5450 C   0  0  0  0  0  0  0  0  0  0  0  0
   20.3130  -29.8690   38.7840 C   0  0  0  0  0  0  0  0  0  0  0  0
   20.0270  -30.9890   37.8640 C   0  0  0  0  0  0  0  0  0  0  0  0
   20.4410  -30.7390   36.5620 O   0  0  0  0  0  0  0  0  0  0  0  0
   20.2310  -31.7000   35.6050 C   0  0  0  0  0  0  0  0  0  0  0  0
   20.6440  -31.4030   34.3060 C   0  0  0  0  0  0  0  0  0  0  0  0
   20.4630  -32.3380   33.2860 C   0  0  0  0  0  0  0  0  0  0  0  0
   19.8690  -33.5710   33.5630 C   0  0  0  0  0  0  0  0  0  0  0  0
   19.4570  -33.8660   34.8600 C   0  0  0  0  0  0  0  0  0  0  0  0
   18.8840  -35.0910   35.0620 O   0  0  0  0  0  0  0  0  0  0  0  0
   19.6380  -32.9290   35.8810 C   0  0  0  0  0  0  0  0  0  0  0  0
   19.2200  -33.1990   37.2570 C   0  0  0  0  0  0  0  0  0  0  0  0
   18.6970  -34.2630   37.5830 O   0  0  0  0  0  0  0  0  0  0  0  0
   19.4480  -32.1370   38.2640 C   0  0  0  0  0  0  0  0  0  0  0  0
   19.0620  -32.4060   39.5640 O   0  0  0  0  0  0  0  0  0  0  0  0
   19.4540  -28.7660   38.8910 C   0  0  0  0  0  0  0  0  0  0  0  0
   19.7380  -27.6860   39.7500 C   0  0  0  0  0  0  0  0  0  0  0  0
   18.7550  -26.5410   39.8370 C   0  0  0  0  0  0  0  0  0  0  0  0
   17.5770  -26.7860   39.1960 F   0  0  0  0  0  0  0  0  0  0  0  0
   19.2270  -25.3850   39.2910 F   0  0  0  0  0  0  0  0  0  0  0  0
   21.1680  -26.9366   42.5051 H   0  0  0  0  0  0  0  0  0  0  0  0
   22.3207  -26.2981   41.2844 H   0  0  0  0  0  0  0  0  0  0  0  0
   20.6128  -25.7415   41.2844 H   0  0  0  0  0  0  0  0  0  0  0  0
   22.7113  -28.8388   40.9966 H   0  0  0  0  0  0  0  0  0  0  0  0
   22.1849  -30.7193   39.4634 H   0  0  0  0  0  0  0  0  0  0  0  0
   21.1121  -30.4322   34.0859 H   0  0  0  0  0  0  0  0  0  0  0  0
   20.7888  -32.1033   32.2619 H   0  0  0  0  0  0  0  0  0  0  0  0
   19.7269  -34.3076   32.7585 H   0  0  0  0  0  0  0  0  0  0  0  0
   19.1710  -35.6310   35.7740 H   0  0  0  0  0  0  0  0  0  0  0  0
   18.2760  -32.0290   39.9070 H   0  0  0  0  0  0  0  0  0  0  0  0
   18.5341  -28.7433   38.2883 H   0  0  0  0  0  0  0  0  0  0  0  0
   18.6002  -26.4371   40.9211 H   0  0  0  0  0  0  0  0  0  0  0  0
  1  2  1  0
  2  3  2  0
  3  4  1  0
  4  5  2  0
  5  6  1  0
  6  7  1  0
  7  8  1  0
  8  9  2  0
  9 10  1  0
 10 11  2  0
 11 12  1  0
 12 13  1  0
 12 14  2  0
 14 15  1  0
 15 16  2  0
 15 17  1  0
 17 18  1  0
  5 19  1  0
 19 20  2  0
 20 21  1  0
 21 22  1  0
 21 23  1  0
 20  2  1  0
 17  6  2  0
 14  8  1  0
  1 24  1  0
  1 25  1  0
  1 26  1  0
  3 27  1  0
  4 28  1  0
  9 29  1  0
 10 30  1  0
 11 31  1  0
 13 32  1  0
 18 33  1  0
 19 34  1  0
 21 35  1  0
M  END
>  <meeko>  (8) 
{"is_sidechain": [false], "free_energy": -8.242, "intermolecular_energy": -9.678, "internal_energy": -0.516}

$$$$
cand_014_out
     RDKit          3D

 35 37  0  0  0  0  0  0  0  0999 V2000
   19.2110  -33.2650   36.4980 C   0  0  0  0  0  0  0  0  0  0  0  0
   19.6820  -32.0540   37.2560 C   0  0  0  0  0  0  0  0  0  0  0  0
   19.6210  -32.0640   38.6580 C   0  0  0  0  0  0  0  0  0  0  0  0
   20.0380  -30.9560   39.4000 C   0  0  0  0  0  0  0  0  0  0  0  0
   20.5280  -29.8110   38.7640 C   0  0  0  0  0  0  0  0  0  0  0  0
   20.9460  -28.6440   39.5680 C   0  0  0  0  0  0  0  0  0  0  0  0
   21.8940  -28.9620   40.5320 O   0  0  0  0  0  0  0  0  0  0  0  0
   22.3660  -27.9660   41.3500 C   0  0  0  0  0  0  0  0  0  0  0  0
   23.3040  -28.3310   42.3160 C   0  0  0  0  0  0  0  0  0  0  0  0
   23.8260  -27.3660   43.1790 C   0  0  0  0  0  0  0  0  0  0  0  0
   23.4120  -26.0360   43.0760 C   0  0  0  0  0  0  0  0  0  0  0  0
   22.4760  -25.6750   42.1110 C   0  0  0  0  0  0  0  0  0  0  0  0
   22.1150  -24.3560   42.0640 O   0  0  0  0  0  0  0  0  0  0  0  0
   21.9530  -26.6410   41.2480 C   0  0  0  0  0  0  0  0  0  0  0  0
   20.9670  -26.3030   40.2200 C   0  0  0  0  0  0  0  0  0  0  0  0
   20.5580  -25.1550   40.0610 O   0  0  0  0  0  0  0  0  0  0  0  0
   20.4680  -27.4020   39.3620 C   0  0  0  0  0  0  0  0  0  0  0  0
   19.5470  -27.0720   38.3850 O   0  0  0  0  0  0  0  0  0  0  0  0
   20.5670  -29.7930   37.3630 C   0  0  0  0  0  0  0  0  0  0  0  0
   20.1450  -30.8970   36.5960 C   0  0  0  0  0  0  0  0  0  0  0  0
   20.2400  -30.8210   35.0890 C   0  0  0  0  0  0  0  0  0  0  0  0
   21.3440  -31.4410   34.5820 F   0  0  0  0  0  0  0  0  0  0  0  0
   20.2960  -29.5440   34.6180 F   0  0  0  0  0  0  0  0  0  0  0  0
   18.9068  -34.0472   37.2091 H   0  0  0  0  0  0  0  0  0  0  0  0
   18.3538  -32.9911   35.8653 H   0  0  0  0  0  0  0  0  0  0  0  0
   20.0280  -33.6422   35.8653 H   0  0  0  0  0  0  0  0  0  0  0  0
   19.2403  -32.9549   39.1790 H   0  0  0  0  0  0  0  0  0  0  0  0
   19.9802  -30.9847   40.4981 H   0  0  0  0  0  0  0  0  0  0  0  0
   23.6318  -29.3779   42.3975 H   0  0  0  0  0  0  0  0  0  0  0  0
   24.5648  -27.6535   43.9416 H   0  0  0  0  0  0  0  0  0  0  0  0
   23.8245  -25.2758   43.7557 H   0  0  0  0  0  0  0  0  0  0  0  0
   22.7700  -23.6880   42.1260 H   0  0  0  0  0  0  0  0  0  0  0  0
   19.2990  -27.7050   37.7410 H   0  0  0  0  0  0  0  0  0  0  0  0
   20.9367  -28.8935   36.8489 H   0  0  0  0  0  0  0  0  0  0  0  0
   19.3193  -31.3266   34.7626 H   0  0  0  0  0  0  0  0  0  0  0  0
  1  2  1  0
  2  3  2  0
  3  4  1  0
  4  5  2  0
  5  6  1  0
  6  7  1  0
  7  8  1  0
  8  9  2  0
  9 10  1  0
 10 11  2  0
 11 12  1  0
 12 13  1  0
 12 14  2  0
 14 15  1  0
 15 16  2  0
 15 17  1  0
 17 18  1  0
  5 19  1  0
 19 20  2  0
 20 21  1  0
 21 22  1  0
 21 23  1  0
 20  2  1  0
 17  6  2  0
 14  8  1  0
  1 24  1  0
  1 25  1  0
  1 26  1  0
  3 27  1  0
  4 28  1  0
  9 29  1  0
 10 30  1  0
 11 31  1  0
 13 32  1  0
 18 33  1  0
 19 34  1  0
 21 35  1  0
M  END
>  <meeko>  (9) 
{"is_sidechain": [false], "free_energy": -8.122, "intermolecular_energy": -9.747, "internal_energy": -0.305}

$$$$
