cand_022_out
     RDKit          3D

 41 43  0  0  0  0  0  0  0  0999 V2000
   24.9650  -30.3560   43.7960 C   0  0  0  0  0  0  0  0  0  0  0  0
   24.2740  -29.8480   42.5410 C   0  0  0  0  0  0  0  0  0  0  0  0
   23.8120  -28.3990   42.7060 C   0  0  0  0  0  0  0  0  0  0  0  0
   22.7140  -28.0460   41.7250 C   0  0  0  0  0  0  0  0  0  0  0  0
   22.2430  -29.0550   40.8610 C   0  0  0  0  0  0  0  0  0  0  0  0
   21.2440  -28.8040   39.9090 C   0  0  0  0  0  0  0  0  0  0  0  0
   20.7300  -29.8670   39.0210 C   0  0  0  0  0  0  0  0  0  0  0  0
   20.0630  -30.8730   39.7110 O   0  0  0  0  0  0  0  0  0  0  0  0
   19.5350  -31.9240   39.0040 C   0  0  0  0  0  0  0  0  0  0  0  0
   18.8870  -32.9180   39.7390 C   0  0  0  0  0  0  0  0  0  0  0  0
   18.3250  -34.0150   39.0810 C   0  0  0  0  0  0  0  0  0  0  0  0
   18.4100  -34.1170   37.6910 C   0  0  0  0  0  0  0  0  0  0  0  0
   19.0570  -33.1230   36.9610 C   0  0  0  0  0  0  0  0  0  0  0  0
   19.1040  -33.2840   35.6040 O   0  0  0  0  0  0  0  0  0  0  0  0
   19.6200  -32.0260   37.6200 C   0  0  0  0  0  0  0  0  0  0  0  0
   20.3090  -30.9590   36.8900 C   0  0  0  0  0  0  0  0  0  0  0  0
   20.4180  -30.9750   35.6660 O   0  0  0  0  0  0  0  0  0  0  0  0
   20.8770  -29.8450   37.6830 C   0  0  0  0  0  0  0  0  0  0  0  0
   21.5130  -28.8370   36.9820 O   0  0  0  0  0  0  0  0  0  0  0  0
   20.7010  -27.5170   39.8440 C   0  0  0  0  0  0  0  0  0  0  0  0
   21.1590  -26.5040   40.6900 C   0  0  0  0  0  0  0  0  0  0  0  0
   22.1720  -26.7500   41.6290 C   0  0  0  0  0  0  0  0  0  0  0  0
   22.6260  -25.6270   42.5200 C   0  0  0  0  0  0  0  0  0  0  0  0
   24.4418  -29.9714   44.6839 H   0  0  0  0  0  0  0  0  0  0  0  0
   24.9446  -31.4558   43.8062 H   0  0  0  0  0  0  0  0  0  0  0  0
   26.0086  -30.0085   43.8062 H   0  0  0  0  0  0  0  0  0  0  0  0
   24.9771  -29.9056   41.6970 H   0  0  0  0  0  0  0  0  0  0  0  0
   23.3892  -30.4745   42.3552 H   0  0  0  0  0  0  0  0  0  0  0  0
   23.4338  -28.2598   43.7295 H   0  0  0  0  0  0  0  0  0  0  0  0
   24.6713  -27.7408   42.5102 H   0  0  0  0  0  0  0  0  0  0  0  0
   22.6701  -30.0660   40.9352 H   0  0  0  0  0  0  0  0  0  0  0  0
   18.8189  -32.8379   40.8340 H   0  0  0  0  0  0  0  0  0  0  0  0
   17.8147  -34.7996   39.6590 H   0  0  0  0  0  0  0  0  0  0  0  0
   17.9668  -34.9807   37.1736 H   0  0  0  0  0  0  0  0  0  0  0  0
   18.9330  -34.1250   35.2260 H   0  0  0  0  0  0  0  0  0  0  0  0
   22.3960  -28.9540   36.6910 H   0  0  0  0  0  0  0  0  0  0  0  0
   19.9037  -27.2996   39.1180 H   0  0  0  0  0  0  0  0  0  0  0  0
   20.7188  -25.4984   40.6189 H   0  0  0  0  0  0  0  0  0  0  0  0
   22.5064  -25.9229   43.5727 H   0  0  0  0  0  0  0  0  0  0  0  0
   23.6845  -25.4049   42.3196 H   0  0  0  0  0  0  0  0  0  0  0  0
   22.0192  -24.7317   42.3196 H   0  0  0  0  0  0  0  0  0  0  0  0
  1  2  1  0
  2  3  1  0
  3  4  1  0
  4  5  2  0
  5  6  1  0
  6  7  1  0
  7  8  1  0
  8  9  1  0
  9 10  2  0
 10 11  1  0
 11 12  2  0
 12 13  1  0
 13 14  1  0
 13 15  2  0
 15 16  1  0
 16 17  2  0
 16 18  1  0
 18 19  1  0
  6 20  2  0
 20 21  1  0
 21 22  2  0
 22 23  1  0
 22  4  1  0
 18  7  2  0
 15  9  1  0
  1 24  1  0
  1 25  1  0
  1 26  1  0
  2 27  1  0
  2 28  1  0
  3 29  1  0
  3 30  1  0
  5 31  1  0
 10 32  1  0
 11 33  1  0
 12 34  1  0
 14 35  1  0
 19 36  1  0
 20 37  1  0
 21 38  1  0
 23 39  1  0
 23 40  1  0
 23 41  1  0
M  END
>  <meeko>  (1) 
{"is_sidechain": [false], "free_energy": -9.256, "intermolecular_energy": -11.42, "internal_energy": -0.47}

$$$$
cand_022_out
     RDKit          3D

 41 43  0  0  0  0  0  0  0  0999 V2000
   19.9440  -24.8910   43.6940 C   0  0  0  0  0  0  0  0  0  0  0  0
   20.2290  -25.9570   42.6480 C   0  0  0  0  0  0  0  0  0  0  0  0
   21.6710  -25.8720   42.1430 C   0  0  0  0  0  0  0  0  0  0  0  0
   22.2320  -27.2390   41.8180 C   0  0  0  0  0  0  0  0  0  0  0  0
   21.5970  -27.9990   40.8150 C   0  0  0  0  0  0  0  0  0  0  0  0
   22.0410  -29.2830   40.4690 C   0  0  0  0  0  0  0  0  0  0  0  0
   21.3930  -30.0700   39.4000 C   0  0  0  0  0  0  0  0  0  0  0  0
   20.5880  -31.0920   39.8920 O   0  0  0  0  0  0  0  0  0  0  0  0
   19.9260  -31.9000   39.0040 C   0  0  0  0  0  0  0  0  0  0  0  0
   19.1410  -32.9220   39.5420 C   0  0  0  0  0  0  0  0  0  0  0  0
   18.4390  -33.7810   38.6930 C   0  0  0  0  0  0  0  0  0  0  0  0
   18.5210  -33.6180   37.3080 C   0  0  0  0  0  0  0  0  0  0  0  0
   19.3040  -32.5980   36.7750 C   0  0  0  0  0  0  0  0  0  0  0  0
   19.3390  -32.4950   35.4110 O   0  0  0  0  0  0  0  0  0  0  0  0
   20.0070  -31.7390   37.6250 C   0  0  0  0  0  0  0  0  0  0  0  0
   20.8420  -30.6550   37.1050 C   0  0  0  0  0  0  0  0  0  0  0  0
   20.9580  -30.4440   35.8990 O   0  0  0  0  0  0  0  0  0  0  0  0
   21.5520  -29.8060   38.0890 C   0  0  0  0  0  0  0  0  0  0  0  0
   22.3270  -28.7770   37.5880 O   0  0  0  0  0  0  0  0  0  0  0  0
   23.1560  -29.8000   41.1370 C   0  0  0  0  0  0  0  0  0  0  0  0
   23.7940  -29.0630   42.1380 C   0  0  0  0  0  0  0  0  0  0  0  0
   23.3390  -27.7850   42.4960 C   0  0  0  0  0  0  0  0  0  0  0  0
   24.0650  -27.0300   43.5760 C   0  0  0  0  0  0  0  0  0  0  0  0
   20.0596  -25.3232   44.6989 H   0  0  0  0  0  0  0  0  0  0  0  0
   20.6508  -24.0573   43.5699 H   0  0  0  0  0  0  0  0  0  0  0  0
   18.9155  -24.5213   43.5699 H   0  0  0  0  0  0  0  0  0  0  0  0
   20.0637  -26.9490   43.0937 H   0  0  0  0  0  0  0  0  0  0  0  0
   19.5533  -25.7948   41.7953 H   0  0  0  0  0  0  0  0  0  0  0  0
   21.6946  -25.2519   41.2347 H   0  0  0  0  0  0  0  0  0  0  0  0
   22.2874  -25.4290   42.9391 H   0  0  0  0  0  0  0  0  0  0  0  0
   20.7296  -27.5731   40.2895 H   0  0  0  0  0  0  0  0  0  0  0  0
   19.0755  -33.0504   40.6325 H   0  0  0  0  0  0  0  0  0  0  0  0
   17.8209  -34.5868   39.1156 H   0  0  0  0  0  0  0  0  0  0  0  0
   17.9678  -34.2945   36.6399 H   0  0  0  0  0  0  0  0  0  0  0  0
   18.9970  -33.1870   34.8810 H   0  0  0  0  0  0  0  0  0  0  0  0
   22.3450  -27.9480   38.0250 H   0  0  0  0  0  0  0  0  0  0  0  0
   23.5348  -30.7980   40.8713 H   0  0  0  0  0  0  0  0  0  0  0  0
   24.6664  -29.4913   42.6533 H   0  0  0  0  0  0  0  0  0  0  0  0
   23.7259  -27.3826   44.5612 H   0  0  0  0  0  0  0  0  0  0  0  0
   25.1473  -27.2002   43.4782 H   0  0  0  0  0  0  0  0  0  0  0  0
   23.8526  -25.9552   43.4782 H   0  0  0  0  0  0  0  0  0  0  0  0
  1  2  1  0
  2  3  1  0
  3  4  1  0
  4  5  2  0
  5  6  1  0
  6  7  1  0
  7  8  1  0
  8  9  1  0
  9 10  2  0
 10 11  1  0
 11 12  2  0
 12 13  1  0
 13 14  1  0
 13 15  2  0
 15 16  1  0
 16 17  2  0
 16 18  1  0
 18 19  1  0
  6 20  2  0
 20 21  1  0
 21 22  2  0
 22 23  1  0
 22  4  1  0
 18  7  2  0
 15  9  1  0
  1 24  1  0
  1 25  1  0
  1 26  1  0
  2 27  1  0
  2 28  1  0
  3 29  1  0
  3 30  1  0
  5 31  1  0
 10 32  1  0
 11 33  1  0
 12 34  1  0
 14 35  1  0
 19 36  1  0
 20 37  1  0
 21 38  1  0
 23 39  1  0
 23 40  1  0
 23 41  1  0
M  END
>  <meeko>  (2) 
{"is_sidechain": [false], "free_energy": -9.063, "intermolecular_energy": -11.078, "internal_energy": -0.574}

$$$$
cand_022_out
     RDKit          3D

 41 43  0  0  0  0  0  0  0  0999 V2000
   18.4800  -34.5600   39.4030 C   0  0  0  0  0  0  0  0  0  0  0  0
   18.9480  -33.2030   39.9030 C   0  0  0  0  0  0  0  0  0  0  0  0
   18.4390  -32.0720   39.0060 C   0  0  0  0  0  0  0  0  0  0  0  0
   19.5580  -31.1430   38.5880 C   0  0  0  0  0  0  0  0  0  0  0  0
   20.0110  -30.1840   39.5170 C   0  0  0  0  0  0  0  0  0  0  0  0
   21.0280  -29.2730   39.2010 C   0  0  0  0  0  0  0  0  0  0  0  0
   21.5220  -28.2850   40.1830 C   0  0  0  0  0  0  0  0  0  0  0  0
   22.4080  -28.8330   41.1020 O   0  0  0  0  0  0  0  0  0  0  0  0
   22.9440  -28.0230   42.0710 C   0  0  0  0  0  0  0  0  0  0  0  0
   23.8180  -28.6190   42.9820 C   0  0  0  0  0  0  0  0  0  0  0  0
   24.4000  -27.8510   43.9930 C   0  0  0  0  0  0  0  0  0  0  0  0
   24.1090  -26.4890   44.0940 C   0  0  0  0  0  0  0  0  0  0  0  0
   23.2370  -25.8970   43.1830 C   0  0  0  0  0  0  0  0  0  0  0  0
   22.9960  -24.5600   43.3380 O   0  0  0  0  0  0  0  0  0  0  0  0
   22.6540  -26.6670   42.1720 C   0  0  0  0  0  0  0  0  0  0  0  0
   21.7320  -26.0840   41.1950 C   0  0  0  0  0  0  0  0  0  0  0  0
   21.4330  -24.8920   41.2130 O   0  0  0  0  0  0  0  0  0  0  0  0
   21.1630  -26.9870   40.1680 C   0  0  0  0  0  0  0  0  0  0  0  0
   20.3040  -26.4230   39.2430 O   0  0  0  0  0  0  0  0  0  0  0  0
   21.6090  -29.3430   37.9310 C   0  0  0  0  0  0  0  0  0  0  0  0
   21.1690  -30.2840   36.9960 C   0  0  0  0  0  0  0  0  0  0  0  0
   20.1390  -31.1850   37.3060 C   0  0  0  0  0  0  0  0  0  0  0  0
   19.7060  -32.1810   36.2660 C   0  0  0  0  0  0  0  0  0  0  0  0
   18.2559  -35.2098   40.2618 H   0  0  0  0  0  0  0  0  0  0  0  0
   17.5736  -34.4333   38.7927 H   0  0  0  0  0  0  0  0  0  0  0  0
   19.2718  -35.0189   38.7927 H   0  0  0  0  0  0  0  0  0  0  0  0
   18.5697  -33.0478   40.9242 H   0  0  0  0  0  0  0  0  0  0  0  0
   20.0478  -33.1887   39.8880 H   0  0  0  0  0  0  0  0  0  0  0  0
   17.9831  -32.5090   38.1053 H   0  0  0  0  0  0  0  0  0  0  0  0
   17.7024  -31.4870   39.5762 H   0  0  0  0  0  0  0  0  0  0  0  0
   19.5538  -30.1499   40.5169 H   0  0  0  0  0  0  0  0  0  0  0  0
   24.0479  -29.6918   42.9037 H   0  0  0  0  0  0  0  0  0  0  0  0
   25.0889  -28.3199   44.7110 H   0  0  0  0  0  0  0  0  0  0  0  0
   24.5672  -25.8850   44.8910 H   0  0  0  0  0  0  0  0  0  0  0  0
   23.5140  -23.9340   42.8710 H   0  0  0  0  0  0  0  0  0  0  0  0
   20.2630  -25.4920   39.1480 H   0  0  0  0  0  0  0  0  0  0  0  0
   22.4209  -28.6501   37.6651 H   0  0  0  0  0  0  0  0  0  0  0  0
   21.6376  -30.3188   36.0014 H   0  0  0  0  0  0  0  0  0  0  0  0
   19.3144  -33.0817   36.7614 H   0  0  0  0  0  0  0  0  0  0  0  0
   18.9197  -31.7369   35.6379 H   0  0  0  0  0  0  0  0  0  0  0  0
   20.5671  -32.4530   35.6379 H   0  0  0  0  0  0  0  0  0  0  0  0
  1  2  1  0
  2  3  1  0
  3  4  1  0
  4  5  2  0
  5  6  1  0
  6  7  1  0
  7  8  1  0
  8  9  1  0
  9 10  2  0
 10 11  1  0
 11 12  2  0
 12 13  1  0
 13 14  1  0
 13 15  2  0
 15 16  1  0
 16 17  2  0
 16 18  1  0
 18 19  1  0
  6 20  2  0
 20 21  1  0
 21 22  2  0
 22 23  1  0
 22  4  1  0
 18  7  2  0
 15  9  1  0
  1 24  1  0
  1 25  1  0
  1 26  1  0
  2 27  1  0
  2 28  1  0
  3 29  1  0
  3 30  1  0
  5 31  1  0
 10 32  1  0
 11 33  1  0
 12 34  1  0
 14 35  1  0
 19 36  1  0
 20 37  1  0
 21 38  1  0
 23 39  1  0
 23 40  1  0
 23 41  1  0
M  END
>  <meeko>  (3) 
{"is_sidechain": [false], "free_energy": -9.048, "intermolecular_energy": -11.0, "internal_energy": -0.634}

$$$$
cand_022_out
     RDKit          3D

 41 43  0  0  0  0  0  0  0  0999 V2000
   25.2390  -29.7020   43.9090 C   0  0  0  0  0  0  0  0  0  0  0  0
   24.3230  -28.7050   44.6010 C   0  0  0  0  0  0  0  0  0  0  0  0
   24.2950  -27.3660   43.8610 C   0  0  0  0  0  0  0  0  0  0  0  0
   22.9540  -27.1170   43.2060 C   0  0  0  0  0  0  0  0  0  0  0  0
   22.6490  -27.8190   42.0220 C   0  0  0  0  0  0  0  0  0  0  0  0
   21.4380  -27.6300   41.3420 C   0  0  0  0  0  0  0  0  0  0  0  0
   21.1060  -28.3840   40.1170 C   0  0  0  0  0  0  0  0  0  0  0  0
   20.6750  -29.6800   40.3790 O   0  0  0  0  0  0  0  0  0  0  0  0
   20.3330  -30.4910   39.3270 C   0  0  0  0  0  0  0  0  0  0  0  0
   19.9200  -31.7880   39.6360 C   0  0  0  0  0  0  0  0  0  0  0  0
   19.5560  -32.6660   38.6120 C   0  0  0  0  0  0  0  0  0  0  0  0
   19.6050  -32.2470   37.2810 C   0  0  0  0  0  0  0  0  0  0  0  0
   20.0170  -30.9520   36.9760 C   0  0  0  0  0  0  0  0  0  0  0  0
   20.0410  -30.6070   35.6520 O   0  0  0  0  0  0  0  0  0  0  0  0
   20.3820  -30.0750   38.0010 C   0  0  0  0  0  0  0  0  0  0  0  0
   20.8210  -28.7060   37.7230 C   0  0  0  0  0  0  0  0  0  0  0  0
   20.8840  -28.2620   36.5780 O   0  0  0  0  0  0  0  0  0  0  0  0
   21.1930  -27.8590   38.8800 C   0  0  0  0  0  0  0  0  0  0  0  0
   21.5940  -26.5640   38.6070 O   0  0  0  0  0  0  0  0  0  0  0  0
   20.5120  -26.7280   41.8780 C   0  0  0  0  0  0  0  0  0  0  0  0
   20.8000  -26.0200   43.0480 C   0  0  0  0  0  0  0  0  0  0  0  0
   22.0190  -26.1960   43.7180 C   0  0  0  0  0  0  0  0  0  0  0  0
   22.2780  -25.4140   44.9770 C   0  0  0  0  0  0  0  0  0  0  0  0
   25.7792  -30.2900   44.6656 H   0  0  0  0  0  0  0  0  0  0  0  0
   24.6388  -30.3763   43.2804 H   0  0  0  0  0  0  0  0  0  0  0  0
   25.9616  -29.1610   43.2804 H   0  0  0  0  0  0  0  0  0  0  0  0
   23.3038  -29.1177   44.6330 H   0  0  0  0  0  0  0  0  0  0  0  0
   24.7056  -28.5309   45.6175 H   0  0  0  0  0  0  0  0  0  0  0  0
   24.4967  -26.5575   44.5791 H   0  0  0  0  0  0  0  0  0  0  0  0
   25.0619  -27.3934   43.0729 H   0  0  0  0  0  0  0  0  0  0  0  0
   23.3816  -28.5348   41.6208 H   0  0  0  0  0  0  0  0  0  0  0  0
   19.8812  -32.1185   40.6845 H   0  0  0  0  0  0  0  0  0  0  0  0
   19.2305  -33.6883   38.8546 H   0  0  0  0  0  0  0  0  0  0  0  0
   19.3187  -32.9384   36.4748 H   0  0  0  0  0  0  0  0  0  0  0  0
   20.6900  -30.9760   35.0840 H   0  0  0  0  0  0  0  0  0  0  0  0
   21.4790  -25.8930   39.2510 H   0  0  0  0  0  0  0  0  0  0  0  0
   19.5469  -26.5746   41.3729 H   0  0  0  0  0  0  0  0  0  0  0  0
   20.0586  -25.3135   43.4496 H   0  0  0  0  0  0  0  0  0  0  0  0
   22.0683  -26.0472   45.8516 H   0  0  0  0  0  0  0  0  0  0  0  0
   23.3301  -25.0939   44.9999 H   0  0  0  0  0  0  0  0  0  0  0  0
   21.6249  -24.5291   44.9999 H   0  0  0  0  0  0  0  0  0  0  0  0
  1  2  1  0
  2  3  1  0
  3  4  1  0
  4  5  2  0
  5  6  1  0
  6  7  1  0
  7  8  1  0
  8  9  1  0
  9 10  2  0
 10 11  1  0
 11 12  2  0
 12 13  1  0
 13 14  1  0
 13 15  2  0
 15 16  1  0
 16 17  2  0
 16 18  1  0
 18 19  1  0
  6 20  2  0
 20 21  1  0
 21 22  2  0
 22 23  1  0
 22  4  1  0
 18  7  2  0
 15  9  1  0
  1 24  1  0
  1 25  1  0
  1 26  1  0
  2 27  1  0
  2 28  1  0
  3 29  1  0
  3 30  1  0
  5 31  1  0
 10 32  1  0
 11 33  1  0
 12 34  1  0
 14 35  1  0
 19 36  1  0
 20 37  1  0
 21 38  1  0
 23 39  1  0
 23 40  1  0
 23 41  1  0
M  END
>  <meeko>  (4) 
{"is_sidechain": [false], "free_energy": -8.813, "intermolecular_energy": -10.723, "internal_energy": -0.62}

$$$$
cand_022_out
     RDKit          3D

 41 43  0  0  0  0  0  0  0  0999 V2000
   18.5140  -33.8300   39.7450 C   0  0  0  0  0  0  0  0  0  0  0  0
   19.6730  -33.0560   39.1360 C   0  0  0  0  0  0  0  0  0  0  0  0
   19.1840  -31.8050   38.4040 C   0  0  0  0  0  0  0  0  0  0  0  0
   20.2490  -30.7310   38.3600 C   0  0  0  0  0  0  0  0  0  0  0  0
   20.6560  -30.1450   39.5760 C   0  0  0  0  0  0  0  0  0  0  0  0
   21.6210  -29.1290   39.6200 C   0  0  0  0  0  0  0  0  0  0  0  0
   22.0680  -28.5330   40.8950 C   0  0  0  0  0  0  0  0  0  0  0  0
   21.2980  -27.4420   41.2820 O   0  0  0  0  0  0  0  0  0  0  0  0
   21.6050  -26.7940   42.4510 C   0  0  0  0  0  0  0  0  0  0  0  0
   20.8150  -25.6950   42.7930 C   0  0  0  0  0  0  0  0  0  0  0  0
   21.0730  -24.9910   43.9710 C   0  0  0  0  0  0  0  0  0  0  0  0
   22.1200  -25.3850   44.8070 C   0  0  0  0  0  0  0  0  0  0  0  0
   22.9060  -26.4820   44.4640 C   0  0  0  0  0  0  0  0  0  0  0  0
   23.9140  -26.8140   45.3270 O   0  0  0  0  0  0  0  0  0  0  0  0
   22.6480  -27.1860   43.2840 C   0  0  0  0  0  0  0  0  0  0  0  0
   23.4510  -28.3440   42.8860 C   0  0  0  0  0  0  0  0  0  0  0  0
   24.3840  -28.7550   43.5730 O   0  0  0  0  0  0  0  0  0  0  0  0
   23.1000  -29.0150   41.6140 C   0  0  0  0  0  0  0  0  0  0  0  0
   23.8560  -30.1150   41.2550 O   0  0  0  0  0  0  0  0  0  0  0  0
   22.1960  -28.7100   38.4150 C   0  0  0  0  0  0  0  0  0  0  0  0
   21.8010  -29.2760   37.2000 C   0  0  0  0  0  0  0  0  0  0  0  0
   20.8220  -30.2800   37.1550 C   0  0  0  0  0  0  0  0  0  0  0  0
   20.4360  -30.8610   35.8220 C   0  0  0  0  0  0  0  0  0  0  0  0
   18.5799  -33.7860   40.8421 H   0  0  0  0  0  0  0  0  0  0  0  0
   17.5631  -33.3850   39.4167 H   0  0  0  0  0  0  0  0  0  0  0  0
   18.5607  -34.8788   39.4167 H   0  0  0  0  0  0  0  0  0  0  0  0
   20.3632  -32.7549   39.9379 H   0  0  0  0  0  0  0  0  0  0  0  0
   20.1805  -33.7069   38.4089 H   0  0  0  0  0  0  0  0  0  0  0  0
   18.9105  -32.0784   37.3742 H   0  0  0  0  0  0  0  0  0  0  0  0
   18.3161  -31.4056   38.9492 H   0  0  0  0  0  0  0  0  0  0  0  0
   20.2040  -30.4945   40.5160 H   0  0  0  0  0  0  0  0  0  0  0  0
   19.9901  -25.3839   42.1352 H   0  0  0  0  0  0  0  0  0  0  0  0
   20.4508  -24.1250   44.2408 H   0  0  0  0  0  0  0  0  0  0  0  0
   22.3233  -24.8298   45.7346 H   0  0  0  0  0  0  0  0  0  0  0  0
   24.6740  -26.2700   45.3900 H   0  0  0  0  0  0  0  0  0  0  0  0
   23.5000  -30.7590   40.6750 H   0  0  0  0  0  0  0  0  0  0  0  0
   22.9677  -27.9262   38.4243 H   0  0  0  0  0  0  0  0  0  0  0  0
   22.2646  -28.9292   36.2647 H   0  0  0  0  0  0  0  0  0  0  0  0
   19.8334  -31.7680   35.9780 H   0  0  0  0  0  0  0  0  0  0  0  0
   19.8481  -30.1229   35.2567 H   0  0  0  0  0  0  0  0  0  0  0  0
   21.3443  -31.1169   35.2567 H   0  0  0  0  0  0  0  0  0  0  0  0
  1  2  1  0
  2  3  1  0
  3  4  1  0
  4  5  2  0
  5  6  1  0
  6  7  1  0
  7  8  1  0
  8  9  1  0
  9 10  2  0
 10 11  1  0
 11 12  2  0
 12 13  1  0
 13 14  1  0
 13 15  2  0
 15 16  1  0
 16 17  2  0
 16 18  1  0
 18 19  1  0
  6 20  2  0
 20 21  1  0
 21 22  2  0
 22 23  1  0
 22  4  1  0
 18  7  2  0
 15  9  1  0
  1 24  1  0
  1 25  1  0
  1 26  1  0
  2 27  1  0
  2 28  1  0
  3 29  1  0
  3 30  1  0
  5 31  1  0
 10 32  1  0
 11 33  1  0
 12 34  1  0
 14 35  1  0
 19 36  1  0
 20 37  1  0
 21 38  1  0
 23 39  1  0
 23 40  1  0
 23 41  1  0
M  END
>  <meeko>  (5) 
{"is_sidechain": [false], "free_energy": -8.482, "intermolecular_energy": -10.342, "internal_energy": -0.594}

$$$$
cand_022_out
     RDKit          3D

 41 43  0  0  0  0  0  0  0  0999 V2000
   19.3440  -24.9890   38.2300 C   0  0  0  0  0  0  0  0  0  0  0  0
   18.5630  -26.1330   38.8570 C   0  0  0  0  0  0  0  0  0  0  0  0
   19.1770  -26.5640   40.1890 C   0  0  0  0  0  0  0  0  0  0  0  0
   20.1400  -27.7180   40.0150 C   0  0  0  0  0  0  0  0  0  0  0  0
   19.7710  -28.7690   39.1500 C   0  0  0  0  0  0  0  0  0  0  0  0
   20.5960  -29.8840   38.9500 C   0  0  0  0  0  0  0  0  0  0  0  0
   20.2240  -30.9730   38.0230 C   0  0  0  0  0  0  0  0  0  0  0  0
   20.5910  -30.7140   36.7080 O   0  0  0  0  0  0  0  0  0  0  0  0
   20.3030  -31.6460   35.7430 C   0  0  0  0  0  0  0  0  0  0  0  0
   20.6770  -31.3370   34.4340 C   0  0  0  0  0  0  0  0  0  0  0  0
   20.4150  -32.2430   33.4040 C   0  0  0  0  0  0  0  0  0  0  0  0
   19.7810  -33.4560   33.6810 C   0  0  0  0  0  0  0  0  0  0  0  0
   19.4100  -33.7610   34.9880 C   0  0  0  0  0  0  0  0  0  0  0  0
   18.7940  -34.9650   35.1900 O   0  0  0  0  0  0  0  0  0  0  0  0
   19.6720  -32.8530   36.0190 C   0  0  0  0  0  0  0  0  0  0  0  0
   19.2970  -33.1350   37.4070 C   0  0  0  0  0  0  0  0  0  0  0  0
   18.7430  -34.1840   37.7300 O   0  0  0  0  0  0  0  0  0  0  0  0
   19.6120  -32.1050   38.4220 C   0  0  0  0  0  0  0  0  0  0  0  0
   19.2660  -32.3870   39.7310 O   0  0  0  0  0  0  0  0  0  0  0  0
   21.8220  -29.9300   39.6220 C   0  0  0  0  0  0  0  0  0  0  0  0
   22.2020  -28.9000   40.4860 C   0  0  0  0  0  0  0  0  0  0  0  0
   21.3680  -27.7920   40.7000 C   0  0  0  0  0  0  0  0  0  0  0  0
   21.8250  -26.7080   41.6370 C   0  0  0  0  0  0  0  0  0  0  0  0
   19.7735  -24.3599   39.0236 H   0  0  0  0  0  0  0  0  0  0  0  0
   20.1535  -25.3961   37.6064 H   0  0  0  0  0  0  0  0  0  0  0  0
   18.6700  -24.3833   37.6064 H   0  0  0  0  0  0  0  0  0  0  0  0
   17.5268  -25.8066   39.0296 H   0  0  0  0  0  0  0  0  0  0  0  0
   18.5928  -26.9905   38.1687 H   0  0  0  0  0  0  0  0  0  0  0  0
   19.7180  -25.7110   40.6245 H   0  0  0  0  0  0  0  0  0  0  0  0
   18.3626  -26.8943   40.8506 H   0  0  0  0  0  0  0  0  0  0  0  0
   18.8099  -28.7120   38.6181 H   0  0  0  0  0  0  0  0  0  0  0  0
   21.1769  -30.3821   34.2143 H   0  0  0  0  0  0  0  0  0  0  0  0
   20.7088  -32.0005   32.3721 H   0  0  0  0  0  0  0  0  0  0  0  0
   19.5752  -34.1687   32.8688 H   0  0  0  0  0  0  0  0  0  0  0  0
   19.2470  -35.7610   34.9950 H   0  0  0  0  0  0  0  0  0  0  0  0
   18.3860  -32.2520   40.0220 H   0  0  0  0  0  0  0  0  0  0  0  0
   22.4945  -30.7868   39.4684 H   0  0  0  0  0  0  0  0  0  0  0  0
   23.1694  -28.9585   41.0063 H   0  0  0  0  0  0  0  0  0  0  0  0
   21.6854  -27.0391   42.6767 H   0  0  0  0  0  0  0  0  0  0  0  0
   22.8895  -26.4949   41.4598 H   0  0  0  0  0  0  0  0  0  0  0  0
   21.2343  -25.7971   41.4598 H   0  0  0  0  0  0  0  0  0  0  0  0
  1  2  1  0
  2  3  1  0
  3  4  1  0
  4  5  2  0
  5  6  1  0
  6  7  1  0
  7  8  1  0
  8  9  1  0
  9 10  2  0
 10 11  1  0
 11 12  2  0
 12 13  1  0
 13 14  1  0
 13 15  2  0
 15 16  1  0
 16 17  2  0
 16 18  1  0
 18 19  1  0
  6 20  2  0
 20 21  1  0
 21 22  2  0
 22 23  1  0
 22  4  1  0
 18  7  2  0
 15  9  1  0
  1 24  1  0
  1 25  1  0
  1 26  1  0
  2 27  1  0
  2 28  1  0
  3 29  1  0
  3 30  1  0
  5 31  1  0
 10 32  1  0
 11 33  1  0
 12 34  1  0
 14 35  1  0
 19 36  1  0
 20 37  1  0
 21 38  1  0
 23 39  1  0
 23 40  1  0
 23 41  1  0
M  END
>  <meeko>  (6) 
{"is_sidechain": [false], "free_energy": -8.16, "intermolecular_energy": -9.862, "internal_energy": -0.676}

$$$$
cand_022_out
     RDKit          3D

 41 43  0  0  0  0  0  0  0  0999 V2000
   18.9340  -28.7060   34.4840 C   0  0  0  0  0  0  0  0  0  0  0  0
   20.3240  -28.9380   35.0550 C   0  0  0  0  0  0  0  0  0  0  0  0
   20.5300  -30.4030   35.4430 C   0  0  0  0  0  0  0  0  0  0  0  0
   20.4140  -30.6080   36.9380 C   0  0  0  0  0  0  0  0  0  0  0  0
   20.9150  -29.6030   37.7900 C   0  0  0  0  0  0  0  0  0  0  0  0
   20.8650  -29.7250   39.1860 C   0  0  0  0  0  0  0  0  0  0  0  0
   21.3650  -28.6610   40.0800 C   0  0  0  0  0  0  0  0  0  0  0  0
   22.3070  -29.1200   40.9930 O   0  0  0  0  0  0  0  0  0  0  0  0
   22.8540  -28.2330   41.8850 C   0  0  0  0  0  0  0  0  0  0  0  0
   23.7850  -28.7400   42.7930 C   0  0  0  0  0  0  0  0  0  0  0  0
   24.3810  -27.8900   43.7270 C   0  0  0  0  0  0  0  0  0  0  0  0
   24.0480  -26.5340   43.7530 C   0  0  0  0  0  0  0  0  0  0  0  0
   23.1200  -26.0310   42.8450 C   0  0  0  0  0  0  0  0  0  0  0  0
   22.8410  -24.6940   42.9240 O   0  0  0  0  0  0  0  0  0  0  0  0
   22.5230  -26.8820   41.9110 C   0  0  0  0  0  0  0  0  0  0  0  0
   21.5420  -26.3930   40.9400 C   0  0  0  0  0  0  0  0  0  0  0  0
   21.2040  -25.2120   40.8950 O   0  0  0  0  0  0  0  0  0  0  0  0
   20.9630  -27.3790   39.9980 C   0  0  0  0  0  0  0  0  0  0  0  0
   20.0470  -26.9040   39.0770 O   0  0  0  0  0  0  0  0  0  0  0  0
   20.2830  -30.8760   39.7290 C   0  0  0  0  0  0  0  0  0  0  0  0
   19.7860  -31.8850   38.8990 C   0  0  0  0  0  0  0  0  0  0  0  0
   19.8520  -31.7700   37.5030 C   0  0  0  0  0  0  0  0  0  0  0  0
   19.2990  -32.8820   36.6540 C   0  0  0  0  0  0  0  0  0  0  0  0
   18.2147  -28.5859   35.3075 H   0  0  0  0  0  0  0  0  0  0  0  0
   18.9387  -27.7962   33.8657 H   0  0  0  0  0  0  0  0  0  0  0  0
   18.6430  -29.5680   33.8657 H   0  0  0  0  0  0  0  0  0  0  0  0
   21.0727  -28.6592   34.2989 H   0  0  0  0  0  0  0  0  0  0  0  0
   20.4344  -28.3214   35.9592 H   0  0  0  0  0  0  0  0  0  0  0  0
   19.7681  -31.0157   34.9390 H   0  0  0  0  0  0  0  0  0  0  0  0
   21.5429  -30.7003   35.1338 H   0  0  0  0  0  0  0  0  0  0  0  0
   21.3573  -28.6982   37.3476 H   0  0  0  0  0  0  0  0  0  0  0  0
   24.0489  -29.8077   42.7729 H   0  0  0  0  0  0  0  0  0  0  0  0
   25.1140  -28.2892   44.4435 H   0  0  0  0  0  0  0  0  0  0  0  0
   24.5177  -25.8649   44.4890 H   0  0  0  0  0  0  0  0  0  0  0  0
   23.2020  -24.1810   43.6200 H   0  0  0  0  0  0  0  0  0  0  0  0
   20.2190  -26.9890   38.1590 H   0  0  0  0  0  0  0  0  0  0  0  0
   20.2159  -30.9880   40.8212 H   0  0  0  0  0  0  0  0  0  0  0  0
   19.3362  -32.7829   39.3478 H   0  0  0  0  0  0  0  0  0  0  0  0
   18.9036  -33.6771   37.3032 H   0  0  0  0  0  0  0  0  0  0  0  0
   18.4903  -32.4911   36.0190 H   0  0  0  0  0  0  0  0  0  0  0  0
   20.0987  -33.2909   36.0190 H   0  0  0  0  0  0  0  0  0  0  0  0
  1  2  1  0
  2  3  1  0
  3  4  1  0
  4  5  2  0
  5  6  1  0
  6  7  1  0
  7  8  1  0
  8  9  1  0
  9 10  2  0
 10 11  1  0
 11 12  2  0
 12 13  1  0
 13 14  1  0
 13 15  2  0
 15 16  1  0
 16 17  2  0
 16 18  1  0
 18 19  1  0
  6 20  2  0
 20 21  1  0
 21 22  2  0
 22 23  1  0
 22  4  1  0
 18  7  2  0
 15  9  1  0
  1 24  1  0
  1 25  1  0
  1 26  1  0
  2 27  1  0
  2 28  1  0
  3 29  1  0
  3 30  1  0
  5 31  1  0
 10 32  1  0
 11 33  1  0
 12 34  1  0
 14 35  1  0
 19 36  1  0
 20 37  1  0
 21 38  1  0
 23 39  1  0
 23 40  1  0
 23 41  1  0
M  END
>  <meeko>  (7) 
{"is_sidechain": [false], "free_energy": -7.995, "intermolecular_energy": -9.9, "internal_energy": -0.434}

$$$$
cand_022_out
     RDKit          3D

 41 43  0  0  0  0  0  0  0  0999 V2000
   25.2670  -30.9650   43.0810 C   0  0  0  0  0  0  0  0  0  0  0  0
   24.1930  -30.1880   42.3360 C   0  0  0  0  0  0  0  0  0  0  0  0
   24.1660  -28.7200   42.7660 C   0  0  0  0  0  0  0  0  0  0  0  0
   22.8880  -28.0340   42.3340 C   0  0  0  0  0  0  0  0  0  0  0  0
   22.4880  -28.1570   40.9880 C   0  0  0  0  0  0  0  0  0  0  0  0
   21.3290  -27.5350   40.5020 C   0  0  0  0  0  0  0  0  0  0  0  0
   20.8940  -27.6850   39.0980 C   0  0  0  0  0  0  0  0  0  0  0  0
   20.9940  -28.9920   38.6380 O   0  0  0  0  0  0  0  0  0  0  0  0
   20.6210  -29.2720   37.3480 C   0  0  0  0  0  0  0  0  0  0  0  0
   20.7520  -30.5950   36.9230 C   0  0  0  0  0  0  0  0  0  0  0  0
   20.3880  -30.9480   35.6220 C   0  0  0  0  0  0  0  0  0  0  0  0
   19.8940  -29.9790   34.7460 C   0  0  0  0  0  0  0  0  0  0  0  0
   19.7640  -28.6600   35.1720 C   0  0  0  0  0  0  0  0  0  0  0  0
   19.2730  -27.7630   34.2640 O   0  0  0  0  0  0  0  0  0  0  0  0
   20.1290  -28.3070   36.4750 C   0  0  0  0  0  0  0  0  0  0  0  0
   20.0080  -26.9320   36.9630 C   0  0  0  0  0  0  0  0  0  0  0  0
   19.5750  -26.0260   36.2530 O   0  0  0  0  0  0  0  0  0  0  0  0
   20.4290  -26.6620   38.3560 C   0  0  0  0  0  0  0  0  0  0  0  0
   20.2990  -25.3620   38.8110 O   0  0  0  0  0  0  0  0  0  0  0  0
   20.5540  -26.7900   41.3970 C   0  0  0  0  0  0  0  0  0  0  0  0
   20.9380  -26.6530   42.7330 C   0  0  0  0  0  0  0  0  0  0  0  0
   22.1070  -27.2610   43.2150 C   0  0  0  0  0  0  0  0  0  0  0  0
   22.4740  -27.0880   44.6630 C   0  0  0  0  0  0  0  0  0  0  0  0
   25.1143  -30.8545   44.1647 H   0  0  0  0  0  0  0  0  0  0  0  0
   25.2054  -32.0290   42.8086 H   0  0  0  0  0  0  0  0  0  0  0  0
   26.2583  -30.5736   42.8086 H   0  0  0  0  0  0  0  0  0  0  0  0
   24.3970  -30.2409   41.2564 H   0  0  0  0  0  0  0  0  0  0  0  0
   23.2161  -30.6355   42.5712 H   0  0  0  0  0  0  0  0  0  0  0  0
   24.2458  -28.6679   43.8619 H   0  0  0  0  0  0  0  0  0  0  0  0
   25.0110  -28.2059   42.2846 H   0  0  0  0  0  0  0  0  0  0  0  0
   23.1017  -28.7572   40.3002 H   0  0  0  0  0  0  0  0  0  0  0  0
   21.1416  -31.3587   37.6122 H   0  0  0  0  0  0  0  0  0  0  0  0
   20.4905  -31.9906   35.2867 H   0  0  0  0  0  0  0  0  0  0  0  0
   19.6081  -30.2575   33.7210 H   0  0  0  0  0  0  0  0  0  0  0  0
   19.6800  -26.9240   34.1690 H   0  0  0  0  0  0  0  0  0  0  0  0
   20.4170  -24.6450   38.2190 H   0  0  0  0  0  0  0  0  0  0  0  0
   19.6311  -26.3062   41.0445 H   0  0  0  0  0  0  0  0  0  0  0  0
   20.3144  -26.0594   43.4176 H   0  0  0  0  0  0  0  0  0  0  0  0
   21.6602  -27.4716   45.2959 H   0  0  0  0  0  0  0  0  0  0  0  0
   23.3981  -27.6453   44.8762 H   0  0  0  0  0  0  0  0  0  0  0  0
   22.6322  -26.0205   44.8762 H   0  0  0  0  0  0  0  0  0  0  0  0
  1  2  1  0
  2  3  1  0
  3  4  1  0
  4  5  2  0
  5  6  1  0
  6  7  1  0
  7  8  1  0
  8  9  1  0
  9 10  2  0
 10 11  1  0
 11 12  2  0
 12 13  1  0
 13 14  1  0
 13 15  2  0
 15 16  1  0
 16 17  2  0
 16 18  1  0
 18 19  1  0
  6 20  2  0
 20 21  1  0
 21 22  2  0
 22 23  1  0
 22  4  1  0
 18  7  2  0
 15  9  1  0
  1 24  1  0
  1 25  1  0
  1 26  1  0
  2 27  1  0
  2 28  1  0
  3 29  1  0
  3 30  1  0
  5 31  1  0
 10 32  1  0
 11 33  1  0
 12 34  1  0
 14 35  1  0
 19 36  1  0
 20 37  1  0
 21 38  1  0
 23 39  1  0
 23 40  1  0
 23 41  1  0
M  END
>  <meeko>  (8) 
{"is_sidechain": [false], "free_energy": -7.947, "intermolecular_energy": -10.039, "internal_energy": -0.235}

$$$$
