cand_051_out
     RDKit          3D

 44 46  0  0  0  0  0  0  0  0999 V2000
   19.4500  -26.7550   41.2910 C   0  0  0  0  0  0  0  0  0  0  0  0
   20.4600  -27.7720   40.8360 C   0  0  0  0  0  0  0  0  0  0  0  0
   20.0650  -28.7400   39.8930 C   0  0  0  0  0  0  0  0  0  0  0  0
   20.9510  -29.7240   39.4250 C   0  0  0  0  0  0  0  0  0  0  0  0
   20.4840  -30.7350   38.4530 C   0  0  0  0  0  0  0  0  0  0  0  0
   20.0290  -31.8990   39.0620 O   0  0  0  0  0  0  0  0  0  0  0  0
   19.5660  -32.9220   38.2750 C   0  0  0  0  0  0  0  0  0  0  0  0
   19.1320  -34.0770   38.9270 C   0  0  0  0  0  0  0  0  0  0  0  0
   18.6460  -35.1550   38.1850 C   0  0  0  0  0  0  0  0  0  0  0  0
   18.5940  -35.0800   36.7920 C   0  0  0  0  0  0  0  0  0  0  0  0
   19.0270  -33.9250   36.1440 C   0  0  0  0  0  0  0  0  0  0  0  0
   18.9470  -33.9170   34.7780 O   0  0  0  0  0  0  0  0  0  0  0  0
   19.5130  -32.8460   36.8860 C   0  0  0  0  0  0  0  0  0  0  0  0
   19.9780  -31.6160   36.2450 C   0  0  0  0  0  0  0  0  0  0  0  0
   19.9560  -31.4700   35.0240 O   0  0  0  0  0  0  0  0  0  0  0  0
   20.4820  -30.5340   37.1220 C   0  0  0  0  0  0  0  0  0  0  0  0
   20.9060  -29.3710   36.5060 O   0  0  0  0  0  0  0  0  0  0  0  0
   22.2520  -29.7390   39.9350 C   0  0  0  0  0  0  0  0  0  0  0  0
   22.6600  -28.7880   40.8730 C   0  0  0  0  0  0  0  0  0  0  0  0
   21.7790  -27.7930   41.3310 C   0  0  0  0  0  0  0  0  0  0  0  0
   22.2940  -26.7910   42.3470 C   0  0  0  0  0  0  0  0  0  0  0  0
   23.4780  -27.3070   43.1920 C   0  0  0  0  0  0  0  0  0  0  0  0
   22.9510  -28.0000   44.4510 C   0  0  0  0  0  0  0  0  0  0  0  0
   24.4390  -26.1840   43.5860 C   0  0  0  0  0  0  0  0  0  0  0  0
   19.4249  -26.7297   42.3904 H   0  0  0  0  0  0  0  0  0  0  0  0
   19.7305  -25.7628   40.9077 H   0  0  0  0  0  0  0  0  0  0  0  0
   18.4559  -27.0286   40.9077 H   0  0  0  0  0  0  0  0  0  0  0  0
   19.0332  -28.7251   39.5120 H   0  0  0  0  0  0  0  0  0  0  0  0
   19.1728  -34.1379   40.0246 H   0  0  0  0  0  0  0  0  0  0  0  0
   18.3034  -36.0652   38.6989 H   0  0  0  0  0  0  0  0  0  0  0  0
   18.2123  -35.9302   36.2077 H   0  0  0  0  0  0  0  0  0  0  0  0
   18.3820  -34.5210   34.3380 H   0  0  0  0  0  0  0  0  0  0  0  0
   20.8610  -28.5550   36.9650 H   0  0  0  0  0  0  0  0  0  0  0  0
   22.9617  -30.5073   39.5944 H   0  0  0  0  0  0  0  0  0  0  0  0
   23.6891  -28.8182   41.2603 H   0  0  0  0  0  0  0  0  0  0  0  0
   22.6203  -25.8889   41.8087 H   0  0  0  0  0  0  0  0  0  0  0  0
   21.4675  -26.5916   43.0450 H   0  0  0  0  0  0  0  0  0  0  0  0
   24.0394  -28.0224   42.5732 H   0  0  0  0  0  0  0  0  0  0  0  0
   23.3411  -27.4870   45.3424 H   0  0  0  0  0  0  0  0  0  0  0  0
   21.8517  -27.9618   44.4577 H   0  0  0  0  0  0  0  0  0  0  0  0
   23.2815  -29.0492   44.4577 H   0  0  0  0  0  0  0  0  0  0  0  0
   24.4957  -26.1178   44.6825 H   0  0  0  0  0  0  0  0  0  0  0  0
   25.4386  -26.3973   43.1794 H   0  0  0  0  0  0  0  0  0  0  0  0
   24.0738  -25.2294   43.1794 H   0  0  0  0  0  0  0  0  0  0  0  0
  1  2  1  0
  2  3  2  0
  3  4  1  0
  4  5  1  0
  5  6  1  0
  6  7  1  0
  7  8  2  0
  8  9  1  0
  9 10  2  0
 10 11  1  0
 11 12  1  0
 11 13  2  0
 13 14  1  0
 14 15  2  0
 14 16  1  0
 16 17  1  0
  4 18  2  0
 18 19  1  0
 19 20  2  0
 20 21  1  0
 21 22  1  0
 22 23  1  0
 22 24  1  0
 20  2  1  0
 16  5  2  0
 13  7  1  0
  1 25  1  0
  1 26  1  0
  1 27  1  0
  3 28  1  0
  8 29  1  0
  9 30  1  0
 10 31  1  0
 12 32  1  0
 17 33  1  0
 18 34  1  0
 19 35  1  0
 21 36  1  0
 21 37  1  0
 22 38  1  0
 23 39  1  0
 23 40  1  0
 23 41  1  0
 24 42  1  0
 24 43  1  0
 24 44  1  0
M  END
>  <meeko>  (1) 
{"is_sidechain": [false], "free_energy": -9.843, "intermolecular_energy": -12.145, "internal_energy": -0.687}

$$$$
cand_051_out
     RDKit          3D

 44 46  0  0  0  0  0  0  0  0999 V2000
   24.1730  -29.4920   42.2070 C   0  0  0  0  0  0  0  0  0  0  0  0
   22.9860  -29.0350   41.4050 C   0  0  0  0  0  0  0  0  0  0  0  0
   22.4060  -29.9310   40.4870 C   0  0  0  0  0  0  0  0  0  0  0  0
   21.2990  -29.5740   39.7010 C   0  0  0  0  0  0  0  0  0  0  0  0
   20.7390  -30.5420   38.7330 C   0  0  0  0  0  0  0  0  0  0  0  0
   20.1740  -31.6530   39.3480 O   0  0  0  0  0  0  0  0  0  0  0  0
   19.6170  -32.6330   38.5650 C   0  0  0  0  0  0  0  0  0  0  0  0
   19.0730  -33.7370   39.2230 C   0  0  0  0  0  0  0  0  0  0  0  0
   18.4880  -34.7680   38.4850 C   0  0  0  0  0  0  0  0  0  0  0  0
   18.4460  -34.6960   37.0920 C   0  0  0  0  0  0  0  0  0  0  0  0
   18.9890  -33.5920   36.4380 C   0  0  0  0  0  0  0  0  0  0  0  0
   18.9130  -33.5850   35.0720 O   0  0  0  0  0  0  0  0  0  0  0  0
   19.5750  -32.5600   37.1760 C   0  0  0  0  0  0  0  0  0  0  0  0
   20.1560  -31.3840   36.5290 C   0  0  0  0  0  0  0  0  0  0  0  0
   20.1510  -31.2440   35.3070 O   0  0  0  0  0  0  0  0  0  0  0  0
   20.7600  -30.3500   37.4010 C   0  0  0  0  0  0  0  0  0  0  0  0
   21.2940  -29.2360   36.7800 O   0  0  0  0  0  0  0  0  0  0  0  0
   20.7840  -28.2820   39.8310 C   0  0  0  0  0  0  0  0  0  0  0  0
   21.3490  -27.3790   40.7350 C   0  0  0  0  0  0  0  0  0  0  0  0
   22.4470  -27.7390   41.5340 C   0  0  0  0  0  0  0  0  0  0  0  0
   23.0040  -26.7070   42.4950 C   0  0  0  0  0  0  0  0  0  0  0  0
   22.3510  -26.7350   43.8920 C   0  0  0  0  0  0  0  0  0  0  0  0
   21.8050  -25.3470   44.2370 C   0  0  0  0  0  0  0  0  0  0  0  0
   23.3310  -27.1870   44.9790 C   0  0  0  0  0  0  0  0  0  0  0  0
   23.9462  -29.4047   43.2798 H   0  0  0  0  0  0  0  0  0  0  0  0
   24.3979  -30.5410   41.9639 H   0  0  0  0  0  0  0  0  0  0  0  0
   25.0433  -28.8646   41.9639 H   0  0  0  0  0  0  0  0  0  0  0  0
   22.8324  -30.9396   40.3826 H   0  0  0  0  0  0  0  0  0  0  0  0
   19.1050  -33.7949   40.3210 H   0  0  0  0  0  0  0  0  0  0  0  0
   18.0594  -35.6388   39.0028 H   0  0  0  0  0  0  0  0  0  0  0  0
   17.9853  -35.5089   36.5116 H   0  0  0  0  0  0  0  0  0  0  0  0
   18.1670  -33.9540   34.6420 H   0  0  0  0  0  0  0  0  0  0  0  0
   22.1930  -29.0090   36.9180 H   0  0  0  0  0  0  0  0  0  0  0  0
   19.9259  -27.9728   39.2161 H   0  0  0  0  0  0  0  0  0  0  0  0
   20.9262  -26.3673   40.8228 H   0  0  0  0  0  0  0  0  0  0  0  0
   24.0821  -26.8906   42.6132 H   0  0  0  0  0  0  0  0  0  0  0  0
   22.7879  -25.7191   42.0621 H   0  0  0  0  0  0  0  0  0  0  0  0
   21.5302  -27.4666   43.8580 H   0  0  0  0  0  0  0  0  0  0  0  0
   21.7598  -25.2321   45.3300 H   0  0  0  0  0  0  0  0  0  0  0  0
   22.4673  -24.5770   43.8144 H   0  0  0  0  0  0  0  0  0  0  0  0
   20.7956  -25.2346   43.8144 H   0  0  0  0  0  0  0  0  0  0  0  0
   22.8973  -26.9870   45.9699 H   0  0  0  0  0  0  0  0  0  0  0  0
   23.5236  -28.2649   44.8739 H   0  0  0  0  0  0  0  0  0  0  0  0
   24.2759  -26.6337   44.8739 H   0  0  0  0  0  0  0  0  0  0  0  0
  1  2  1  0
  2  3  2  0
  3  4  1  0
  4  5  1  0
  5  6  1  0
  6  7  1  0
  7  8  2  0
  8  9  1  0
  9 10  2  0
 10 11  1  0
 11 12  1  0
 11 13  2  0
 13 14  1  0
 14 15  2  0
 14 16  1  0
 16 17  1  0
  4 18  2  0
 18 19  1  0
 19 20  2  0
 20 21  1  0
 21 22  1  0
 22 23  1  0
 22 24  1  0
 20  2  1  0
 16  5  2  0
 13  7  1  0
  1 25  1  0
  1 26  1  0
  1 27  1  0
  3 28  1  0
  8 29  1  0
  9 30  1  0
 10 31  1  0
 12 32  1  0
 17 33  1  0
 18 34  1  0
 19 35  1  0
 21 36  1  0
 21 37  1  0
 22 38  1  0
 23 39  1  0
 23 40  1  0
 23 41  1  0
 24 42  1  0
 24 43  1  0
 24 44  1  0
M  END
>  <meeko>  (2) 
{"is_sidechain": [false], "free_energy": -9.25, "intermolecular_energy": -11.483, "internal_energy": -0.617}

$$$$
cand_051_out
     RDKit          3D

 44 46  0  0  0  0  0  0  0  0999 V2000
   19.4250  -26.6070   40.7620 C   0  0  0  0  0  0  0  0  0  0  0  0
   20.3960  -27.7140   40.4590 C   0  0  0  0  0  0  0  0  0  0  0  0
   20.0190  -28.7100   39.5380 C   0  0  0  0  0  0  0  0  0  0  0  0
   20.8700  -29.7760   39.2090 C   0  0  0  0  0  0  0  0  0  0  0  0
   20.4210  -30.8120   38.2540 C   0  0  0  0  0  0  0  0  0  0  0  0
   20.7880  -30.5310   36.9430 O   0  0  0  0  0  0  0  0  0  0  0  0
   20.4330  -31.4120   35.9520 C   0  0  0  0  0  0  0  0  0  0  0  0
   20.8100  -31.0840   34.6490 C   0  0  0  0  0  0  0  0  0  0  0  0
   20.4820  -31.9390   33.5940 C   0  0  0  0  0  0  0  0  0  0  0  0
   19.7790  -33.1190   33.8410 C   0  0  0  0  0  0  0  0  0  0  0  0
   19.4050  -33.4430   35.1430 C   0  0  0  0  0  0  0  0  0  0  0  0
   18.7190  -34.6150   35.3150 O   0  0  0  0  0  0  0  0  0  0  0  0
   19.7320  -32.5880   36.1990 C   0  0  0  0  0  0  0  0  0  0  0  0
   19.3580  -32.8910   37.5800 C   0  0  0  0  0  0  0  0  0  0  0  0
   18.7450  -33.9140   37.8790 O   0  0  0  0  0  0  0  0  0  0  0  0
   19.7460  -31.9150   38.6250 C   0  0  0  0  0  0  0  0  0  0  0  0
   19.4000  -32.2180   39.9290 O   0  0  0  0  0  0  0  0  0  0  0  0
   22.1160  -29.8470   39.8380 C   0  0  0  0  0  0  0  0  0  0  0  0
   22.5050  -28.8690   40.7560 C   0  0  0  0  0  0  0  0  0  0  0  0
   21.6610  -27.7920   41.0760 C   0  0  0  0  0  0  0  0  0  0  0  0
   22.1530  -26.7670   42.0790 C   0  0  0  0  0  0  0  0  0  0  0  0
   23.3180  -27.2620   42.9610 C   0  0  0  0  0  0  0  0  0  0  0  0
   22.7650  -27.9230   44.2260 C   0  0  0  0  0  0  0  0  0  0  0  0
   24.2720  -26.1290   43.3480 C   0  0  0  0  0  0  0  0  0  0  0  0
   19.3260  -26.4941   41.8517 H   0  0  0  0  0  0  0  0  0  0  0  0
   19.7945  -25.6662   40.3280 H   0  0  0  0  0  0  0  0  0  0  0  0
   18.4441  -26.8507   40.3280 H   0  0  0  0  0  0  0  0  0  0  0  0
   19.0288  -28.6507   39.0627 H   0  0  0  0  0  0  0  0  0  0  0  0
   21.3642  -30.1542   34.4531 H   0  0  0  0  0  0  0  0  0  0  0  0
   20.7785  -31.6816   32.5665 H   0  0  0  0  0  0  0  0  0  0  0  0
   19.5209  -33.7915   33.0096 H   0  0  0  0  0  0  0  0  0  0  0  0
   18.2230  -34.9750   34.6060 H   0  0  0  0  0  0  0  0  0  0  0  0
   18.8210  -31.6540   40.4030 H   0  0  0  0  0  0  0  0  0  0  0  0
   22.7962  -30.6804   39.6081 H   0  0  0  0  0  0  0  0  0  0  0  0
   23.4911  -28.9432   41.2378 H   0  0  0  0  0  0  0  0  0  0  0  0
   22.4906  -25.8773   41.5272 H   0  0  0  0  0  0  0  0  0  0  0  0
   21.3114  -26.5524   42.7540 H   0  0  0  0  0  0  0  0  0  0  0  0
   23.8910  -27.9928   42.3714 H   0  0  0  0  0  0  0  0  0  0  0  0
   23.1825  -27.4240   45.1129 H   0  0  0  0  0  0  0  0  0  0  0  0
   21.6687  -27.8337   44.2371 H   0  0  0  0  0  0  0  0  0  0  0  0
   23.0464  -28.9863   44.2371 H   0  0  0  0  0  0  0  0  0  0  0  0
   24.3316  -26.0582   44.4441 H   0  0  0  0  0  0  0  0  0  0  0  0
   25.2720  -26.3358   42.9390 H   0  0  0  0  0  0  0  0  0  0  0  0
   23.8979  -25.1789   42.9390 H   0  0  0  0  0  0  0  0  0  0  0  0
  1  2  1  0
  2  3  2  0
  3  4  1  0
  4  5  1  0
  5  6  1  0
  6  7  1  0
  7  8  2  0
  8  9  1  0
  9 10  2  0
 10 11  1  0
 11 12  1  0
 11 13  2  0
 13 14  1  0
 14 15  2  0
 14 16  1  0
 16 17  1  0
  4 18  2  0
 18 19  1  0
 19 20  2  0
 20 21  1  0
 21 22  1  0
 22 23  1  0
 22 24  1  0
 20  2  1  0
 16  5  2  0
 13  7  1  0
  1 25  1  0
  1 26  1  0
  1 27  1  0
  3 28  1  0
  8 29  1  0
  9 30  1  0
 10 31  1  0
 12 32  1  0
 17 33  1  0
 18 34  1  0
 19 35  1  0
 21 36  1  0
 21 37  1  0
 22 38  1  0
 23 39  1  0
 23 40  1  0
 23 41  1  0
 24 42  1  0
 24 43  1  0
 24 44  1  0
M  END
>  <meeko>  (3) 
{"is_sidechain": [false], "free_energy": -9.085, "intermolecular_energy": -11.232, "internal_energy": -0.665}

$$$$
cand_051_out
     RDKit          3D

 44 46  0  0  0  0  0  0  0  0999 V2000
   23.0670  -28.8230   41.3130 C   0  0  0  0  0  0  0  0  0  0  0  0
   21.8300  -28.7110   40.4660 C   0  0  0  0  0  0  0  0  0  0  0  0
   21.4810  -29.7920   39.6330 C   0  0  0  0  0  0  0  0  0  0  0  0
   20.3440  -29.7580   38.8110 C   0  0  0  0  0  0  0  0  0  0  0  0
   20.0320  -30.9070   37.9360 C   0  0  0  0  0  0  0  0  0  0  0  0
   20.4330  -30.7070   36.6200 O   0  0  0  0  0  0  0  0  0  0  0  0
   20.2040  -31.6980   35.6980 C   0  0  0  0  0  0  0  0  0  0  0  0
   20.6100  -31.4490   34.3860 C   0  0  0  0  0  0  0  0  0  0  0  0
   20.4080  -32.4170   33.4000 C   0  0  0  0  0  0  0  0  0  0  0  0
   19.8010  -33.6310   33.7240 C   0  0  0  0  0  0  0  0  0  0  0  0
   19.3970  -33.8770   35.0350 C   0  0  0  0  0  0  0  0  0  0  0  0
   18.8100  -35.0870   35.2830 O   0  0  0  0  0  0  0  0  0  0  0  0
   19.5980  -32.9080   36.0220 C   0  0  0  0  0  0  0  0  0  0  0  0
   19.1890  -33.1260   37.4090 C   0  0  0  0  0  0  0  0  0  0  0  0
   18.6560  -34.1720   37.7750 O   0  0  0  0  0  0  0  0  0  0  0  0
   19.4410  -32.0330   38.3770 C   0  0  0  0  0  0  0  0  0  0  0  0
   19.0630  -32.2550   39.6890 O   0  0  0  0  0  0  0  0  0  0  0  0
   19.5580  -28.6030   38.8170 C   0  0  0  0  0  0  0  0  0  0  0  0
   19.8900  -27.5200   39.6350 C   0  0  0  0  0  0  0  0  0  0  0  0
   21.0200  -27.5580   40.4700 C   0  0  0  0  0  0  0  0  0  0  0  0
   21.3150  -26.3470   41.3330 C   0  0  0  0  0  0  0  0  0  0  0  0
   20.8390  -26.4870   42.7940 C   0  0  0  0  0  0  0  0  0  0  0  0
   19.7890  -25.4160   43.1010 C   0  0  0  0  0  0  0  0  0  0  0  0
   21.9940  -26.3750   43.7920 C   0  0  0  0  0  0  0  0  0  0  0  0
   22.7868  -28.7976   42.3764 H   0  0  0  0  0  0  0  0  0  0  0  0
   23.5787  -29.7711   41.0912 H   0  0  0  0  0  0  0  0  0  0  0  0
   23.7406  -27.9822   41.0912 H   0  0  0  0  0  0  0  0  0  0  0  0
   22.1181  -30.6887   39.6266 H   0  0  0  0  0  0  0  0  0  0  0  0
   21.0881  -30.4922   34.1292 H   0  0  0  0  0  0  0  0  0  0  0  0
   20.7280  -32.2221   32.3658 H   0  0  0  0  0  0  0  0  0  0  0  0
   19.6417  -34.3923   32.9462 H   0  0  0  0  0  0  0  0  0  0  0  0
   18.2210  -35.1830   36.0050 H   0  0  0  0  0  0  0  0  0  0  0  0
   19.2590  -31.6170   40.3470 H   0  0  0  0  0  0  0  0  0  0  0  0
   18.6692  -28.5457   38.1715 H   0  0  0  0  0  0  0  0  0  0  0  0
   19.2556  -26.6214   39.6253 H   0  0  0  0  0  0  0  0  0  0  0  0
   22.4026  -26.1822   41.3378 H   0  0  0  0  0  0  0  0  0  0  0  0
   20.7608  -25.5027   40.8971 H   0  0  0  0  0  0  0  0  0  0  0  0
   20.4008  -27.4900   42.9035 H   0  0  0  0  0  0  0  0  0  0  0  0
   19.6831  -25.3080   44.1906 H   0  0  0  0  0  0  0  0  0  0  0  0
   20.1061  -24.4565   42.6665 H   0  0  0  0  0  0  0  0  0  0  0  0
   18.8234  -25.7140   42.6665 H   0  0  0  0  0  0  0  0  0  0  0  0
   21.5976  -26.4134   44.8174 H   0  0  0  0  0  0  0  0  0  0  0  0
   22.6939  -27.2095   43.6379 H   0  0  0  0  0  0  0  0  0  0  0  0
   22.5206  -25.4216   43.6379 H   0  0  0  0  0  0  0  0  0  0  0  0
  1  2  1  0
  2  3  2  0
  3  4  1  0
  4  5  1  0
  5  6  1  0
  6  7  1  0
  7  8  2  0
  8  9  1  0
  9 10  2  0
 10 11  1  0
 11 12  1  0
 11 13  2  0
 13 14  1  0
 14 15  2  0
 14 16  1  0
 16 17  1  0
  4 18  2  0
 18 19  1  0
 19 20  2  0
 20 21  1  0
 21 22  1  0
 22 23  1  0
 22 24  1  0
 20  2  1  0
 16  5  2  0
 13  7  1  0
  1 25  1  0
  1 26  1  0
  1 27  1  0
  3 28  1  0
  8 29  1  0
  9 30  1  0
 10 31  1  0
 12 32  1  0
 17 33  1  0
 18 34  1  0
 19 35  1  0
 21 36  1  0
 21 37  1  0
 22 38  1  0
 23 39  1  0
 23 40  1  0
 23 41  1  0
 24 42  1  0
 24 43  1  0
 24 44  1  0
M  END
>  <meeko>  (4) 
{"is_sidechain": [false], "free_energy": -8.721, "intermolecular_energy": -10.785, "internal_energy": -0.662}

$$$$
cand_051_out
     RDKit          3D

 44 46  0  0  0  0  0  0  0  0999 V2000
   19.0380  -32.7300   38.5110 C   0  0  0  0  0  0  0  0  0  0  0  0
   20.0150  -31.6190   38.2440 C   0  0  0  0  0  0  0  0  0  0  0  0
   20.6210  -30.9750   39.3400 C   0  0  0  0  0  0  0  0  0  0  0  0
   21.5390  -29.9270   39.1690 C   0  0  0  0  0  0  0  0  0  0  0  0
   22.1310  -29.2650   40.3510 C   0  0  0  0  0  0  0  0  0  0  0  0
   23.0870  -30.0500   40.9860 O   0  0  0  0  0  0  0  0  0  0  0  0
   23.7170  -29.5560   42.1000 C   0  0  0  0  0  0  0  0  0  0  0  0
   24.6600  -30.3830   42.7140 C   0  0  0  0  0  0  0  0  0  0  0  0
   25.3390  -29.9400   43.8510 C   0  0  0  0  0  0  0  0  0  0  0  0
   25.0770  -28.6730   44.3740 C   0  0  0  0  0  0  0  0  0  0  0  0
   24.1360  -27.8500   43.7590 C   0  0  0  0  0  0  0  0  0  0  0  0
   23.9300  -26.6200   44.3220 O   0  0  0  0  0  0  0  0  0  0  0  0
   23.4560  -28.2930   42.6210 C   0  0  0  0  0  0  0  0  0  0  0  0
   22.4610  -27.4600   41.9450 C   0  0  0  0  0  0  0  0  0  0  0  0
   22.1810  -26.3300   42.3410 O   0  0  0  0  0  0  0  0  0  0  0  0
   21.7910  -28.0270   40.7520 C   0  0  0  0  0  0  0  0  0  0  0  0
   20.8620  -27.2260   40.1130 O   0  0  0  0  0  0  0  0  0  0  0  0
   21.8320  -29.5100   37.8680 C   0  0  0  0  0  0  0  0  0  0  0  0
   21.2390  -30.1360   36.7700 C   0  0  0  0  0  0  0  0  0  0  0  0
   20.3310  -31.1950   36.9370 C   0  0  0  0  0  0  0  0  0  0  0  0
   19.7300  -31.8280   35.6980 C   0  0  0  0  0  0  0  0  0  0  0  0
   20.5420  -31.5790   34.4100 C   0  0  0  0  0  0  0  0  0  0  0  0
   20.0030  -30.3400   33.6900 C   0  0  0  0  0  0  0  0  0  0  0  0
   20.5060  -32.7810   33.4630 C   0  0  0  0  0  0  0  0  0  0  0  0
   18.9213  -32.8626   39.5967 H   0  0  0  0  0  0  0  0  0  0  0  0
   18.0644  -32.4770   38.0658 H   0  0  0  0  0  0  0  0  0  0  0  0
   19.4134  -33.6632   38.0658 H   0  0  0  0  0  0  0  0  0  0  0  0
   20.3677  -31.3026   40.3591 H   0  0  0  0  0  0  0  0  0  0  0  0
   24.8676  -31.3818   42.3026 H   0  0  0  0  0  0  0  0  0  0  0  0
   26.0818  -30.5910   44.3353 H   0  0  0  0  0  0  0  0  0  0  0  0
   25.6122  -28.3249   45.2698 H   0  0  0  0  0  0  0  0  0  0  0  0
   23.2520  -26.5040   44.9590 H   0  0  0  0  0  0  0  0  0  0  0  0
   21.1410  -26.4530   39.6620 H   0  0  0  0  0  0  0  0  0  0  0  0
   22.5365  -28.6807   37.7074 H   0  0  0  0  0  0  0  0  0  0  0  0
   21.4875  -29.7935   35.7546 H   0  0  0  0  0  0  0  0  0  0  0  0
   19.6645  -32.9138   35.8613 H   0  0  0  0  0  0  0  0  0  0  0  0
   18.7447  -31.3623   35.5484 H   0  0  0  0  0  0  0  0  0  0  0  0
   21.5896  -31.4194   34.7052 H   0  0  0  0  0  0  0  0  0  0  0  0
   19.6794  -29.5960   34.4328 H   0  0  0  0  0  0  0  0  0  0  0  0
   20.7948  -29.9086   33.0599 H   0  0  0  0  0  0  0  0  0  0  0  0
   19.1476  -30.6252   33.0599 H   0  0  0  0  0  0  0  0  0  0  0  0
   20.4782  -33.7103   34.0509 H   0  0  0  0  0  0  0  0  0  0  0  0
   19.6092  -32.7214   32.8288 H   0  0  0  0  0  0  0  0  0  0  0  0
   21.4047  -32.7751   32.8288 H   0  0  0  0  0  0  0  0  0  0  0  0
  1  2  1  0
  2  3  2  0
  3  4  1  0
  4  5  1  0
  5  6  1  0
  6  7  1  0
  7  8  2  0
  8  9  1  0
  9 10  2  0
 10 11  1  0
 11 12  1  0
 11 13  2  0
 13 14  1  0
 14 15  2  0
 14 16  1  0
 16 17  1  0
  4 18  2  0
 18 19  1  0
 19 20  2  0
 20 21  1  0
 21 22  1  0
 22 23  1  0
 22 24  1  0
 20  2  1  0
 16  5  2  0
 13  7  1  0
  1 25  1  0
  1 26  1  0
  1 27  1  0
  3 28  1  0
  8 29  1  0
  9 30  1  0
 10 31  1  0
 12 32  1  0
 17 33  1  0
 18 34  1  0
 19 35  1  0
 21 36  1  0
 21 37  1  0
 22 38  1  0
 23 39  1  0
 23 40  1  0
 23 41  1  0
 24 42  1  0
 24 43  1  0
 24 44  1  0
M  END
>  <meeko>  (5) 
{"is_sidechain": [false], "free_energy": -8.53, "intermolecular_energy": -10.801, "internal_energy": -0.41}

$$$$
cand_051_out
     RDKit          3D

 44 46  0  0  0  0  0  0  0  0999 V2000
   19.7580  -24.8650   40.7230 C   0  0  0  0  0  0  0  0  0  0  0  0
   20.5920  -26.1140   40.7980 C   0  0  0  0  0  0  0  0  0  0  0  0
   20.2780  -27.1870   39.9420 C   0  0  0  0  0  0  0  0  0  0  0  0
   21.0090  -28.3850   39.9580 C   0  0  0  0  0  0  0  0  0  0  0  0
   20.6260  -29.4940   39.0570 C   0  0  0  0  0  0  0  0  0  0  0  0
   19.9360  -30.5070   39.7120 O   0  0  0  0  0  0  0  0  0  0  0  0
   19.5210  -31.5990   38.9930 C   0  0  0  0  0  0  0  0  0  0  0  0
   18.8450  -32.5990   39.6930 C   0  0  0  0  0  0  0  0  0  0  0  0
   18.3930  -33.7370   39.0200 C   0  0  0  0  0  0  0  0  0  0  0  0
   18.6170  -33.8740   37.6490 C   0  0  0  0  0  0  0  0  0  0  0  0
   19.2920  -32.8740   36.9530 C   0  0  0  0  0  0  0  0  0  0  0  0
   19.4770  -33.0730   35.6120 O   0  0  0  0  0  0  0  0  0  0  0  0
   19.7450  -31.7370   37.6260 C   0  0  0  0  0  0  0  0  0  0  0  0
   20.4580  -30.6640   36.9330 C   0  0  0  0  0  0  0  0  0  0  0  0
   20.6870  -30.7080   35.7250 O   0  0  0  0  0  0  0  0  0  0  0  0
   20.9020  -29.5030   37.7400 C   0  0  0  0  0  0  0  0  0  0  0  0
   21.5630  -28.4890   37.0720 O   0  0  0  0  0  0  0  0  0  0  0  0
   22.0610  -28.5070   40.8690 C   0  0  0  0  0  0  0  0  0  0  0  0
   22.3840  -27.4530   41.7270 C   0  0  0  0  0  0  0  0  0  0  0  0
   21.6640  -26.2470   41.7030 C   0  0  0  0  0  0  0  0  0  0  0  0
   22.0760  -25.1460   42.6610 C   0  0  0  0  0  0  0  0  0  0  0  0
   21.3750  -25.2160   44.0340 C   0  0  0  0  0  0  0  0  0  0  0  0
   20.5510  -23.9460   44.2590 C   0  0  0  0  0  0  0  0  0  0  0  0
   22.3710  -25.3930   45.1820 C   0  0  0  0  0  0  0  0  0  0  0  0
   19.5259  -24.5174   41.7405 H   0  0  0  0  0  0  0  0  0  0  0  0
   20.3159  -24.0832   40.1868 H   0  0  0  0  0  0  0  0  0  0  0  0
   18.8221  -25.0807   40.1868 H   0  0  0  0  0  0  0  0  0  0  0  0
   19.4364  -27.0834   39.2413 H   0  0  0  0  0  0  0  0  0  0  0  0
   18.6681  -32.4916   40.7734 H   0  0  0  0  0  0  0  0  0  0  0  0
   17.8601  -34.5258   39.5711 H   0  0  0  0  0  0  0  0  0  0  0  0
   18.2611  -34.7700   37.1193 H   0  0  0  0  0  0  0  0  0  0  0  0
   18.8380  -32.7640   35.0000 H   0  0  0  0  0  0  0  0  0  0  0  0
   21.2500  -27.6070   37.1320 H   0  0  0  0  0  0  0  0  0  0  0  0
   22.6401  -29.4413   40.9111 H   0  0  0  0  0  0  0  0  0  0  0  0
   23.2179  -27.5696   42.4348 H   0  0  0  0  0  0  0  0  0  0  0  0
   23.1618  -25.2162   42.8227 H   0  0  0  0  0  0  0  0  0  0  0  0
   21.7781  -24.1932   42.1990 H   0  0  0  0  0  0  0  0  0  0  0  0
   20.7171  -26.0975   44.0252 H   0  0  0  0  0  0  0  0  0  0  0  0
   20.4366  -23.7696   45.3387 H   0  0  0  0  0  0  0  0  0  0  0  0
   21.0656  -23.0889   43.8000 H   0  0  0  0  0  0  0  0  0  0  0  0
   19.5587  -24.0666   43.8000 H   0  0  0  0  0  0  0  0  0  0  0  0
   21.8436  -25.2993   46.1427 H   0  0  0  0  0  0  0  0  0  0  0  0
   22.8356  -26.3878   45.1143 H   0  0  0  0  0  0  0  0  0  0  0  0
   23.1499  -24.6192   45.1143 H   0  0  0  0  0  0  0  0  0  0  0  0
  1  2  1  0
  2  3  2  0
  3  4  1  0
  4  5  1  0
  5  6  1  0
  6  7  1  0
  7  8  2  0
  8  9  1  0
  9 10  2  0
 10 11  1  0
 11 12  1  0
 11 13  2  0
 13 14  1  0
 14 15  2  0
 14 16  1  0
 16 17  1  0
  4 18  2  0
 18 19  1  0
 19 20  2  0
 20 21  1  0
 21 22  1  0
 22 23  1  0
 22 24  1  0
 20  2  1  0
 16  5  2  0
 13  7  1  0
  1 25  1  0
  1 26  1  0
  1 27  1  0
  3 28  1  0
  8 29  1  0
  9 30  1  0
 10 31  1  0
 12 32  1  0
 17 33  1  0
 18 34  1  0
 19 35  1  0
 21 36  1  0
 21 37  1  0
 22 38  1  0
 23 39  1  0
 23 40  1  0
 23 41  1  0
 24 42  1  0
 24 43  1  0
 24 44  1  0
M  END
>  <meeko>  (6) 
{"is_sidechain": [false], "free_energy": -8.49, "intermolecular_energy": -10.456, "internal_energy": -0.706}

$$$$
cand_051_out
     RDKit          3D

 44 46  0  0  0  0  0  0  0  0999 V2000
   23.0420  -29.0940   41.2440 C   0  0  0  0  0  0  0  0  0  0  0  0
   21.7870  -28.9500   40.4280 C   0  0  0  0  0  0  0  0  0  0  0  0
   21.6080  -29.7900   39.3130 C   0  0  0  0  0  0  0  0  0  0  0  0
   20.4640  -29.7110   38.5020 C   0  0  0  0  0  0  0  0  0  0  0  0
   20.3310  -30.5980   37.3270 C   0  0  0  0  0  0  0  0  0  0  0  0
   19.8300  -31.8530   37.6530 O   0  0  0  0  0  0  0  0  0  0  0  0
   19.6560  -32.7770   36.6540 C   0  0  0  0  0  0  0  0  0  0  0  0
   19.1650  -34.0290   37.0280 C   0  0  0  0  0  0  0  0  0  0  0  0
   18.9620  -35.0150   36.0600 C   0  0  0  0  0  0  0  0  0  0  0  0
   19.2500  -34.7500   34.7200 C   0  0  0  0  0  0  0  0  0  0  0  0
   19.7400  -33.5000   34.3500 C   0  0  0  0  0  0  0  0  0  0  0  0
   20.0000  -33.3080   33.0200 O   0  0  0  0  0  0  0  0  0  0  0  0
   19.9430  -32.5130   35.3180 C   0  0  0  0  0  0  0  0  0  0  0  0
   20.4560  -31.1880   34.9720 C   0  0  0  0  0  0  0  0  0  0  0  0
   20.7250  -30.8760   33.8130 O   0  0  0  0  0  0  0  0  0  0  0  0
   20.6430  -30.2160   36.0750 C   0  0  0  0  0  0  0  0  0  0  0  0
   21.1150  -28.9620   35.7340 O   0  0  0  0  0  0  0  0  0  0  0  0
   19.4970  -28.7510   38.8130 C   0  0  0  0  0  0  0  0  0  0  0  0
   19.6610  -27.9080   39.9150 C   0  0  0  0  0  0  0  0  0  0  0  0
   20.7970  -27.9960   40.7370 C   0  0  0  0  0  0  0  0  0  0  0  0
   20.9040  -27.0500   41.9170 C   0  0  0  0  0  0  0  0  0  0  0  0
   21.5960  -25.7110   41.5880 C   0  0  0  0  0  0  0  0  0  0  0  0
   22.7540  -25.4740   42.5600 C   0  0  0  0  0  0  0  0  0  0  0  0
   20.6250  -24.5290   41.6460 C   0  0  0  0  0  0  0  0  0  0  0  0
   22.7889  -29.0650   42.3141 H   0  0  0  0  0  0  0  0  0  0  0  0
   23.5251  -30.0535   41.0074 H   0  0  0  0  0  0  0  0  0  0  0  0
   23.7299  -28.2689   41.0074 H   0  0  0  0  0  0  0  0  0  0  0  0
   22.3857  -30.5290   39.0699 H   0  0  0  0  0  0  0  0  0  0  0  0
   18.9383  -34.2387   38.0837 H   0  0  0  0  0  0  0  0  0  0  0  0
   18.5747  -36.0017   36.3538 H   0  0  0  0  0  0  0  0  0  0  0  0
   19.0902  -35.5270   33.9579 H   0  0  0  0  0  0  0  0  0  0  0  0
   20.7120  -33.7590   32.6120 H   0  0  0  0  0  0  0  0  0  0  0  0
   20.5760  -28.3770   35.2390 H   0  0  0  0  0  0  0  0  0  0  0  0
   18.5989  -28.6583   38.1846 H   0  0  0  0  0  0  0  0  0  0  0  0
   18.8862  -27.1614   40.1434 H   0  0  0  0  0  0  0  0  0  0  0  0
   19.8884  -26.8342   42.2804 H   0  0  0  0  0  0  0  0  0  0  0  0
   21.5265  -27.5525   42.6719 H   0  0  0  0  0  0  0  0  0  0  0  0
   21.9752  -25.7797   40.5577 H   0  0  0  0  0  0  0  0  0  0  0  0
   22.3861  -25.5493   43.5939 H   0  0  0  0  0  0  0  0  0  0  0  0
   23.5342  -26.2311   42.3924 H   0  0  0  0  0  0  0  0  0  0  0  0
   23.1740  -24.4713   42.3924 H   0  0  0  0  0  0  0  0  0  0  0  0
   20.4174  -24.2762   42.6962 H   0  0  0  0  0  0  0  0  0  0  0  0
   21.0739  -23.6606   41.1417 H   0  0  0  0  0  0  0  0  0  0  0  0
   19.6859  -24.8008   41.1417 H   0  0  0  0  0  0  0  0  0  0  0  0
  1  2  1  0
  2  3  2  0
  3  4  1  0
  4  5  1  0
  5  6  1  0
  6  7  1  0
  7  8  2  0
  8  9  1  0
  9 10  2  0
 10 11  1  0
 11 12  1  0
 11 13  2  0
 13 14  1  0
 14 15  2  0
 14 16  1  0
 16 17  1  0
  4 18  2  0
 18 19  1  0
 19 20  2  0
 20 21  1  0
 21 22  1  0
 22 23  1  0
 22 24  1  0
 20  2  1  0
 16  5  2  0
 13  7  1  0
  1 25  1  0
  1 26  1  0
  1 27  1  0
  3 28  1  0
  8 29  1  0
  9 30  1  0
 10 31  1  0
 12 32  1  0
 17 33  1  0
 18 34  1  0
 19 35  1  0
 21 36  1  0
 21 37  1  0
 22 38  1  0
 23 39  1  0
 23 40  1  0
 23 41  1  0
 24 42  1  0
 24 43  1  0
 24 44  1  0
M  END
>  <meeko>  (7) 
{"is_sidechain": [false], "free_energy": -8.465, "intermolecular_energy": -10.384, "internal_energy": -0.747}

$$$$
cand_051_out
     RDKit          3D

 44 46  0  0  0  0  0  0  0  0999 V2000
   19.3920  -32.5040   38.8330 C   0  0  0  0  0  0  0  0  0  0  0  0
   20.2250  -31.2690   38.6230 C   0  0  0  0  0  0  0  0  0  0  0  0
   20.7110  -30.5830   39.7520 C   0  0  0  0  0  0  0  0  0  0  0  0
   21.4910  -29.4220   39.6350 C   0  0  0  0  0  0  0  0  0  0  0  0
   21.9580  -28.7210   40.8500 C   0  0  0  0  0  0  0  0  0  0  0  0
   21.1420  -27.6510   41.2020 O   0  0  0  0  0  0  0  0  0  0  0  0
   21.4610  -26.9120   42.3130 C   0  0  0  0  0  0  0  0  0  0  0  0
   20.6240  -25.8390   42.6220 C   0  0  0  0  0  0  0  0  0  0  0  0
   20.8910  -25.0470   43.7410 C   0  0  0  0  0  0  0  0  0  0  0  0
   21.9930  -25.3280   44.5510 C   0  0  0  0  0  0  0  0  0  0  0  0
   22.8270  -26.4000   44.2400 C   0  0  0  0  0  0  0  0  0  0  0  0
   23.8870  -26.6190   45.0760 O   0  0  0  0  0  0  0  0  0  0  0  0
   22.5600  -27.1920   43.1200 C   0  0  0  0  0  0  0  0  0  0  0  0
   23.4100  -28.3260   42.7590 C   0  0  0  0  0  0  0  0  0  0  0  0
   24.3940  -28.6420   43.4260 O   0  0  0  0  0  0  0  0  0  0  0  0
   23.0450  -29.0970   41.5480 C   0  0  0  0  0  0  0  0  0  0  0  0
   23.8470  -30.1760   41.2230 O   0  0  0  0  0  0  0  0  0  0  0  0
   21.7670  -28.9370   38.3540 C   0  0  0  0  0  0  0  0  0  0  0  0
   21.2910  -29.6040   37.2230 C   0  0  0  0  0  0  0  0  0  0  0  0
   20.5230  -30.7750   37.3370 C   0  0  0  0  0  0  0  0  0  0  0  0
   20.0450  -31.4470   36.0650 C   0  0  0  0  0  0  0  0  0  0  0  0
   20.6060  -30.8160   34.7740 C   0  0  0  0  0  0  0  0  0  0  0  0
   19.6700  -29.7050   34.2910 C   0  0  0  0  0  0  0  0  0  0  0  0
   20.7950  -31.8490   33.6600 C   0  0  0  0  0  0  0  0  0  0  0  0
   19.2699  -32.6850   39.9111 H   0  0  0  0  0  0  0  0  0  0  0  0
   18.4039  -32.3628   38.3707 H   0  0  0  0  0  0  0  0  0  0  0  0
   19.8931  -33.3672   38.3707 H   0  0  0  0  0  0  0  0  0  0  0  0
   20.4727  -30.9678   40.7546 H   0  0  0  0  0  0  0  0  0  0  0  0
   19.7550  -25.6172   41.9851 H   0  0  0  0  0  0  0  0  0  0  0  0
   20.2321  -24.2005   43.9845 H   0  0  0  0  0  0  0  0  0  0  0  0
   22.2023  -24.7045   45.4327 H   0  0  0  0  0  0  0  0  0  0  0  0
   23.8750  -27.3440   45.6700 H   0  0  0  0  0  0  0  0  0  0  0  0
   23.4680  -31.0270   41.1190 H   0  0  0  0  0  0  0  0  0  0  0  0
   22.3648  -28.0213   38.2352 H   0  0  0  0  0  0  0  0  0  0  0  0
   21.5217  -29.2050   36.2242 H   0  0  0  0  0  0  0  0  0  0  0  0
   20.3513  -32.5031   36.0954 H   0  0  0  0  0  0  0  0  0  0  0  0
   18.9524  -31.3241   36.0310 H   0  0  0  0  0  0  0  0  0  0  0  0
   21.5956  -30.3999   35.0137 H   0  0  0  0  0  0  0  0  0  0  0  0
   19.2350  -29.1887   35.1594 H   0  0  0  0  0  0  0  0  0  0  0  0
   20.2381  -28.9853   33.6833 H   0  0  0  0  0  0  0  0  0  0  0  0
   18.8644  -30.1427   33.6833 H   0  0  0  0  0  0  0  0  0  0  0  0
   20.9761  -32.8387   34.1046 H   0  0  0  0  0  0  0  0  0  0  0  0
   19.8889  -31.8869   33.0375 H   0  0  0  0  0  0  0  0  0  0  0  0
   21.6558  -31.5636   33.0375 H   0  0  0  0  0  0  0  0  0  0  0  0
  1  2  1  0
  2  3  2  0
  3  4  1  0
  4  5  1  0
  5  6  1  0
  6  7  1  0
  7  8  2  0
  8  9  1  0
  9 10  2  0
 10 11  1  0
 11 12  1  0
 11 13  2  0
 13 14  1  0
 14 15  2  0
 14 16  1  0
 16 17  1  0
  4 18  2  0
 18 19  1  0
 19 20  2  0
 20 21  1  0
 21 22  1  0
 22 23  1  0
 22 24  1  0
 20  2  1  0
 16  5  2  0
 13  7  1  0
  1 25  1  0
  1 26  1  0
  1 27  1  0
  3 28  1  0
  8 29  1  0
  9 30  1  0
 10 31  1  0
 12 32  1  0
 17 33  1  0
 18 34  1  0
 19 35  1  0
 21 36  1  0
 21 37  1  0
 22 38  1  0
 23 39  1  0
 23 40  1  0
 23 41  1  0
 24 42  1  0
 24 43  1  0
 24 44  1  0
M  END
>  <meeko>  (8) 
{"is_sidechain": [false], "free_energy": -8.346, "intermolecular_energy": -10.505, "internal_energy": -0.479}

$$$$
cand_051_out
     RDKit          3D

 44 46  0  0  0  0  0  0  0  0999 V2000
   24.2060  -29.5190   42.3610 C   0  0  0  0  0  0  0  0  0  0  0  0
   22.9900  -28.7010   42.0260 C   0  0  0  0  0  0  0  0  0  0  0  0
   22.5160  -28.7100   40.7000 C   0  0  0  0  0  0  0  0  0  0  0  0
   21.3900  -27.9680   40.3110 C   0  0  0  0  0  0  0  0  0  0  0  0
   20.9440  -27.9890   38.9010 C   0  0  0  0  0  0  0  0  0  0  0  0
   20.9570  -29.2660   38.3510 O   0  0  0  0  0  0  0  0  0  0  0  0
   20.5660  -29.4290   37.0460 C   0  0  0  0  0  0  0  0  0  0  0  0
   20.6080  -30.7250   36.5300 C   0  0  0  0  0  0  0  0  0  0  0  0
   20.2210  -30.9610   35.2090 C   0  0  0  0  0  0  0  0  0  0  0  0
   19.7920  -29.9040   34.4050 C   0  0  0  0  0  0  0  0  0  0  0  0
   19.7500  -28.6120   34.9230 C   0  0  0  0  0  0  0  0  0  0  0  0
   19.3190  -27.6230   34.0810 O   0  0  0  0  0  0  0  0  0  0  0  0
   20.1380  -28.3750   36.2450 C   0  0  0  0  0  0  0  0  0  0  0  0
   20.1100  -27.0340   36.8270 C   0  0  0  0  0  0  0  0  0  0  0  0
   19.7370  -26.0530   36.1860 O   0  0  0  0  0  0  0  0  0  0  0  0
   20.5490  -26.8890   38.2350 C   0  0  0  0  0  0  0  0  0  0  0  0
   20.5050  -25.6180   38.7800 O   0  0  0  0  0  0  0  0  0  0  0  0
   20.7450  -27.1890   41.2750 C   0  0  0  0  0  0  0  0  0  0  0  0
   21.2030  -27.1670   42.5940 C   0  0  0  0  0  0  0  0  0  0  0  0
   22.3210  -27.9200   42.9890 C   0  0  0  0  0  0  0  0  0  0  0  0
   22.7580  -27.8500   44.4400 C   0  0  0  0  0  0  0  0  0  0  0  0
   23.4810  -26.5390   44.8140 C   0  0  0  0  0  0  0  0  0  0  0  0
   22.4630  -25.5100   45.3120 C   0  0  0  0  0  0  0  0  0  0  0  0
   24.2670  -25.9570   43.6370 C   0  0  0  0  0  0  0  0  0  0  0  0
   24.3108  -29.5895   43.4537 H   0  0  0  0  0  0  0  0  0  0  0  0
   24.0972  -30.5282   41.9372 H   0  0  0  0  0  0  0  0  0  0  0  0
   25.0998  -29.0378   41.9372 H   0  0  0  0  0  0  0  0  0  0  0  0
   23.0430  -29.3156   39.9480 H   0  0  0  0  0  0  0  0  0  0  0  0
   20.9453  -31.5592   37.1627 H   0  0  0  0  0  0  0  0  0  0  0  0
   20.2544  -31.9821   34.8014 H   0  0  0  0  0  0  0  0  0  0  0  0
   19.4878  -30.0910   33.3646 H   0  0  0  0  0  0  0  0  0  0  0  0
   18.7470  -26.9530   34.4000 H   0  0  0  0  0  0  0  0  0  0  0  0
   20.3910  -24.8730   38.2230 H   0  0  0  0  0  0  0  0  0  0  0  0
   19.8684  -26.5875   40.9924 H   0  0  0  0  0  0  0  0  0  0  0  0
   20.6786  -26.5486   43.3374 H   0  0  0  0  0  0  0  0  0  0  0  0
   21.8652  -27.9463   45.0754 H   0  0  0  0  0  0  0  0  0  0  0  0
   23.4781  -28.6668   44.5958 H   0  0  0  0  0  0  0  0  0  0  0  0
   24.2013  -26.7748   45.6112 H   0  0  0  0  0  0  0  0  0  0  0  0
   22.4564  -25.5034   46.4120 H   0  0  0  0  0  0  0  0  0  0  0  0
   22.7390  -24.5119   44.9410 H   0  0  0  0  0  0  0  0  0  0  0  0
   21.4620  -25.7753   44.9410 H   0  0  0  0  0  0  0  0  0  0  0  0
   25.0964  -25.3429   44.0178 H   0  0  0  0  0  0  0  0  0  0  0  0
   24.6693  -26.7767   43.0236 H   0  0  0  0  0  0  0  0  0  0  0  0
   23.6003  -25.3331   43.0236 H   0  0  0  0  0  0  0  0  0  0  0  0
  1  2  1  0
  2  3  2  0
  3  4  1  0
  4  5  1  0
  5  6  1  0
  6  7  1  0
  7  8  2  0
  8  9  1  0
  9 10  2  0
 10 11  1  0
 11 12  1  0
 11 13  2  0
 13 14  1  0
 14 15  2  0
 14 16  1  0
 16 17  1  0
  4 18  2  0
 18 19  1  0
 19 20  2  0
 20 21  1  0
 21 22  1  0
 22 23  1  0
 22 24  1  0
 20  2  1  0
 16  5  2  0
 13  7  1  0
  1 25  1  0
  1 26  1  0
  1 27  1  0
  3 28  1  0
  8 29  1  0
  9 30  1  0
 10 31  1  0
 12 32  1  0
 17 33  1  0
 18 34  1  0
 19 35  1  0
 21 36  1  0
 21 37  1  0
 22 38  1  0
 23 39  1  0
 23 40  1  0
 23 41  1  0
 24 42  1  0
 24 43  1  0
 24 44  1  0
M  END
>  <meeko>  (9) 
{"is_sidechain": [false], "free_energy": -8.308, "intermolecular_energy": -10.723, "internal_energy": -0.215}

$$$$
