cand_024_out
     RDKit          3D

 47 49  0  0  0  0  0  0  0  0999 V2000
   20.1220  -32.8750   32.5590 C   0  0  0  0  0  0  0  0  0  0  0  0
   20.5010  -33.1230   33.9520 N   0  0  0  0  0  0  0  0  0  0  0  0
   19.8010  -34.3140   34.4430 C   0  0  0  0  0  0  0  0  0  0  0  0
   20.1920  -31.9680   34.8180 C   0  0  0  0  0  0  0  0  0  0  0  0
   19.6860  -32.3750   36.2140 C   0  0  0  0  0  0  0  0  0  0  0  0
   20.1160  -31.3850   37.2820 C   0  0  0  0  0  0  0  0  0  0  0  0
   20.8040  -30.2290   36.8760 C   0  0  0  0  0  0  0  0  0  0  0  0
   21.2370  -29.2860   37.8100 C   0  0  0  0  0  0  0  0  0  0  0  0
   20.9900  -29.4640   39.1750 C   0  0  0  0  0  0  0  0  0  0  0  0
   21.4720  -28.4610   40.1480 C   0  0  0  0  0  0  0  0  0  0  0  0
   22.4080  -28.9750   41.0370 O   0  0  0  0  0  0  0  0  0  0  0  0
   22.9390  -28.1470   41.9920 C   0  0  0  0  0  0  0  0  0  0  0  0
   23.8650  -28.7070   42.8730 C   0  0  0  0  0  0  0  0  0  0  0  0
   24.4450  -27.9190   43.8690 C   0  0  0  0  0  0  0  0  0  0  0  0
   24.0980  -26.5710   43.9850 C   0  0  0  0  0  0  0  0  0  0  0  0
   23.1740  -26.0140   43.1050 C   0  0  0  0  0  0  0  0  0  0  0  0
   22.8810  -24.6890   43.2740 O   0  0  0  0  0  0  0  0  0  0  0  0
   22.5940  -26.8040   42.1090 C   0  0  0  0  0  0  0  0  0  0  0  0
   21.6180  -26.2580   41.1640 C   0  0  0  0  0  0  0  0  0  0  0  0
   21.2680  -25.0810   41.1970 O   0  0  0  0  0  0  0  0  0  0  0  0
   21.0570  -27.1810   40.1500 C   0  0  0  0  0  0  0  0  0  0  0  0
   20.1460  -26.6540   39.2530 O   0  0  0  0  0  0  0  0  0  0  0  0
   20.3150  -30.6240   39.5820 C   0  0  0  0  0  0  0  0  0  0  0  0
   19.8720  -31.5940   38.6560 C   0  0  0  0  0  0  0  0  0  0  0  0
   19.1310  -32.8090   39.1710 C   0  0  0  0  0  0  0  0  0  0  0  0
   19.6910  -33.9940   38.7930 F   0  0  0  0  0  0  0  0  0  0  0  0
   19.0700  -32.8490   40.5320 F   0  0  0  0  0  0  0  0  0  0  0  0
   17.8400  -32.8660   38.7360 F   0  0  0  0  0  0  0  0  0  0  0  0
   19.2018  -32.2729   32.5310 H   0  0  0  0  0  0  0  0  0  0  0  0
   20.9315  -32.3314   32.0500 H   0  0  0  0  0  0  0  0  0  0  0  0
   19.9480  -33.8345   32.0500 H   0  0  0  0  0  0  0  0  0  0  0  0
   21.5100  -33.2720   33.9850 H   0  0  0  0  0  0  0  0  0  0  0  0
   19.8019  -34.3124   35.5430 H   0  0  0  0  0  0  0  0  0  0  0  0
   18.7636  -34.3065   34.0772 H   0  0  0  0  0  0  0  0  0  0  0  0
   20.3123  -35.2167   34.0772 H   0  0  0  0  0  0  0  0  0  0  0  0
   21.1055  -31.3672   34.9387 H   0  0  0  0  0  0  0  0  0  0  0  0
   19.3856  -31.4004   34.3306 H   0  0  0  0  0  0  0  0  0  0  0  0
   18.5872  -32.4222   36.1943 H   0  0  0  0  0  0  0  0  0  0  0  0
   20.1202  -33.3547   36.4621 H   0  0  0  0  0  0  0  0  0  0  0  0
   21.0043  -30.0647   35.8069 H   0  0  0  0  0  0  0  0  0  0  0  0
   21.7791  -28.3920   37.4681 H   0  0  0  0  0  0  0  0  0  0  0  0
   24.1379  -29.7688   42.7828 H   0  0  0  0  0  0  0  0  0  0  0  0
   25.1758  -28.3601   44.5629 H   0  0  0  0  0  0  0  0  0  0  0  0
   24.5541  -25.9504   44.7704 H   0  0  0  0  0  0  0  0  0  0  0  0
   23.5230  -24.1100   43.6360 H   0  0  0  0  0  0  0  0  0  0  0  0
   20.3710  -25.8970   38.7470 H   0  0  0  0  0  0  0  0  0  0  0  0
   20.1251  -30.7830   40.6538 H   0  0  0  0  0  0  0  0  0  0  0  0
  1  2  1  0
  2  3  1  0
  2  4  1  0
  4  5  1  0
  5  6  1  0
  6  7  2  0
  7  8  1  0
  8  9  2  0
  9 10  1  0
 10 11  1  0
 11 12  1  0
 12 13  2  0
 13 14  1  0
 14 15  2  0
 15 16  1  0
 16 17  1  0
 16 18  2  0
 18 19  1  0
 19 20  2  0
 19 21  1  0
 21 22  1  0
  9 23  1  0
 23 24  2  0
 24 25  1  0
 25 26  1  0
 25 27  1  0
 25 28  1  0
 24  6  1  0
 21 10  2  0
 18 12  1  0
  1 29  1  0
  1 30  1  0
  1 31  1  0
  2 32  1  0
  3 33  1  0
  3 34  1  0
  3 35  1  0
  4 36  1  0
  4 37  1  0
  5 38  1  0
  5 39  1  0
  7 40  1  0
  8 41  1  0
 13 42  1  0
 14 43  1  0
 15 44  1  0
 17 45  1  0
 22 46  1  0
 23 47  1  0
M  CHG  1   2   1
M  END
>  <meeko>  (1) 
{"is_sidechain": [false], "free_energy": -9.792, "intermolecular_energy": -13.227, "internal_energy": -0.567}

$$$$
cand_024_out
     RDKit          3D

 47 49  0  0  0  0  0  0  0  0999 V2000
   24.5030  -26.0770   43.5830 C   0  0  0  0  0  0  0  0  0  0  0  0
   23.6940  -27.1070   44.2390 N   0  0  0  0  0  0  0  0  0  0  0  0
   24.4140  -28.3850   44.2110 C   0  0  0  0  0  0  0  0  0  0  0  0
   22.3750  -27.2620   43.5940 C   0  0  0  0  0  0  0  0  0  0  0  0
   22.3400  -26.7230   42.1520 C   0  0  0  0  0  0  0  0  0  0  0  0
   21.7860  -27.7480   41.1790 C   0  0  0  0  0  0  0  0  0  0  0  0
   22.6050  -28.8330   40.8230 C   0  0  0  0  0  0  0  0  0  0  0  0
   22.1600  -29.8040   39.9240 C   0  0  0  0  0  0  0  0  0  0  0  0
   20.8820  -29.7250   39.3590 C   0  0  0  0  0  0  0  0  0  0  0  0
   20.4370  -30.7550   38.3970 C   0  0  0  0  0  0  0  0  0  0  0  0
   19.9970  -31.9200   39.0140 O   0  0  0  0  0  0  0  0  0  0  0  0
   19.5540  -32.9560   38.2330 C   0  0  0  0  0  0  0  0  0  0  0  0
   19.1350  -34.1120   38.8940 C   0  0  0  0  0  0  0  0  0  0  0  0
   18.6700  -35.2050   38.1590 C   0  0  0  0  0  0  0  0  0  0  0  0
   18.6250  -35.1420   36.7650 C   0  0  0  0  0  0  0  0  0  0  0  0
   19.0430  -33.9870   36.1080 C   0  0  0  0  0  0  0  0  0  0  0  0
   18.9720  -33.9930   34.7420 O   0  0  0  0  0  0  0  0  0  0  0  0
   19.5090  -32.8950   36.8440 C   0  0  0  0  0  0  0  0  0  0  0  0
   19.9580  -31.6630   36.1930 C   0  0  0  0  0  0  0  0  0  0  0  0
   19.9420  -31.5280   34.9720 O   0  0  0  0  0  0  0  0  0  0  0  0
   20.4400  -30.5660   37.0640 C   0  0  0  0  0  0  0  0  0  0  0  0
   20.8500  -29.4000   36.4420 O   0  0  0  0  0  0  0  0  0  0  0  0
   20.0700  -28.6360   39.7040 C   0  0  0  0  0  0  0  0  0  0  0  0
   20.5000  -27.6400   40.6080 C   0  0  0  0  0  0  0  0  0  0  0  0
   19.5570  -26.5060   40.9460 C   0  0  0  0  0  0  0  0  0  0  0  0
   19.2690  -26.4100   42.2760 F   0  0  0  0  0  0  0  0  0  0  0  0
   20.0500  -25.2880   40.5880 F   0  0  0  0  0  0  0  0  0  0  0  0
   18.3490  -26.6180   40.3240 F   0  0  0  0  0  0  0  0  0  0  0  0
   24.9924  -25.4539   44.3461 H   0  0  0  0  0  0  0  0  0  0  0  0
   25.2684  -26.5566   42.9552 H   0  0  0  0  0  0  0  0  0  0  0  0
   23.8557  -25.4470   42.9552 H   0  0  0  0  0  0  0  0  0  0  0  0
   23.5340  -26.8190   45.2050 H   0  0  0  0  0  0  0  0  0  0  0  0
   24.6037  -28.7216   45.2409 H   0  0  0  0  0  0  0  0  0  0  0  0
   23.8066  -29.1366   43.6855 H   0  0  0  0  0  0  0  0  0  0  0  0
   25.3716  -28.2549   43.6855 H   0  0  0  0  0  0  0  0  0  0  0  0
   22.1186  -28.3315   43.5742 H   0  0  0  0  0  0  0  0  0  0  0  0
   21.6524  -26.6758   44.1806 H   0  0  0  0  0  0  0  0  0  0  0  0
   21.7050  -25.8253   42.1230 H   0  0  0  0  0  0  0  0  0  0  0  0
   23.3714  -26.4884   41.8501 H   0  0  0  0  0  0  0  0  0  0  0  0
   23.6113  -28.9185   41.2590 H   0  0  0  0  0  0  0  0  0  0  0  0
   22.8217  -30.6411   39.6566 H   0  0  0  0  0  0  0  0  0  0  0  0
   19.1710  -34.1621   39.9923 H   0  0  0  0  0  0  0  0  0  0  0  0
   18.3390  -36.1161   38.6789 H   0  0  0  0  0  0  0  0  0  0  0  0
   18.2599  -36.0033   36.1863 H   0  0  0  0  0  0  0  0  0  0  0  0
   19.0460  -33.1900   34.2660 H   0  0  0  0  0  0  0  0  0  0  0  0
   20.2790  -28.9660   35.8390 H   0  0  0  0  0  0  0  0  0  0  0  0
   19.0681  -28.5547   39.2574 H   0  0  0  0  0  0  0  0  0  0  0  0
  1  2  1  0
  2  3  1  0
  2  4  1  0
  4  5  1  0
  5  6  1  0
  6  7  2  0
  7  8  1  0
  8  9  2  0
  9 10  1  0
 10 11  1  0
 11 12  1  0
 12 13  2  0
 13 14  1  0
 14 15  2  0
 15 16  1  0
 16 17  1  0
 16 18  2  0
 18 19  1  0
 19 20  2  0
 19 21  1  0
 21 22  1  0
  9 23  1  0
 23 24  2  0
 24 25  1  0
 25 26  1  0
 25 27  1  0
 25 28  1  0
 24  6  1  0
 21 10  2  0
 18 12  1  0
  1 29  1  0
  1 30  1  0
  1 31  1  0
  2 32  1  0
  3 33  1  0
  3 34  1  0
  3 35  1  0
  4 36  1  0
  4 37  1  0
  5 38  1  0
  5 39  1  0
  7 40  1  0
  8 41  1  0
 13 42  1  0
 14 43  1  0
 15 44  1  0
 17 45  1  0
 22 46  1  0
 23 47  1  0
M  CHG  1   2   1
M  END
>  <meeko>  (2) 
{"is_sidechain": [false], "free_energy": -9.615, "intermolecular_energy": -12.716, "internal_energy": -0.839}

$$$$
cand_024_out
     RDKit          3D

 47 49  0  0  0  0  0  0  0  0999 V2000
   21.7130  -24.6900   46.6240 C   0  0  0  0  0  0  0  0  0  0  0  0
   22.3910  -24.7430   45.3260 N   0  0  0  0  0  0  0  0  0  0  0  0
   21.5280  -24.1480   44.3010 C   0  0  0  0  0  0  0  0  0  0  0  0
   22.7390  -26.1270   44.9460 C   0  0  0  0  0  0  0  0  0  0  0  0
   23.6830  -26.2020   43.7320 C   0  0  0  0  0  0  0  0  0  0  0  0
   23.1540  -27.1400   42.6610 C   0  0  0  0  0  0  0  0  0  0  0  0
   22.2640  -26.6200   41.7060 C   0  0  0  0  0  0  0  0  0  0  0  0
   21.7330  -27.4320   40.7020 C   0  0  0  0  0  0  0  0  0  0  0  0
   22.0790  -28.7840   40.6180 C   0  0  0  0  0  0  0  0  0  0  0  0
   21.4920  -29.6300   39.5570 C   0  0  0  0  0  0  0  0  0  0  0  0
   20.6810  -30.6410   40.0580 O   0  0  0  0  0  0  0  0  0  0  0  0
   20.0710  -31.4980   39.1770 C   0  0  0  0  0  0  0  0  0  0  0  0
   19.2770  -32.5080   39.7230 C   0  0  0  0  0  0  0  0  0  0  0  0
   18.6260  -33.4130   38.8830 C   0  0  0  0  0  0  0  0  0  0  0  0
   18.7700  -33.3100   37.4980 C   0  0  0  0  0  0  0  0  0  0  0  0
   19.5620  -32.3020   36.9560 C   0  0  0  0  0  0  0  0  0  0  0  0
   19.6590  -32.2580   35.5920 O   0  0  0  0  0  0  0  0  0  0  0  0
   20.2140  -31.3960   37.7970 C   0  0  0  0  0  0  0  0  0  0  0  0
   21.0560  -30.3220   37.2680 C   0  0  0  0  0  0  0  0  0  0  0  0
   21.2260  -30.1610   36.0620 O   0  0  0  0  0  0  0  0  0  0  0  0
   21.7080  -29.4200   38.2450 C   0  0  0  0  0  0  0  0  0  0  0  0
   22.4910  -28.4000   37.7370 O   0  0  0  0  0  0  0  0  0  0  0  0
   22.9560  -29.3070   41.5790 C   0  0  0  0  0  0  0  0  0  0  0  0
   23.5030  -28.5060   42.6050 C   0  0  0  0  0  0  0  0  0  0  0  0
   24.4600  -29.1390   43.5920 C   0  0  0  0  0  0  0  0  0  0  0  0
   25.6500  -28.4810   43.7010 F   0  0  0  0  0  0  0  0  0  0  0  0
   23.9530  -29.1920   44.8550 F   0  0  0  0  0  0  0  0  0  0  0  0
   24.7870  -30.4220   43.2650 F   0  0  0  0  0  0  0  0  0  0  0  0
   22.4592  -24.7483   47.4301 H   0  0  0  0  0  0  0  0  0  0  0  0
   21.1554  -23.7455   46.7081 H   0  0  0  0  0  0  0  0  0  0  0  0
   21.0154  -25.5364   46.7081 H   0  0  0  0  0  0  0  0  0  0  0  0
   23.2610  -24.2150   45.4000 H   0  0  0  0  0  0  0  0  0  0  0  0
   20.7152  -23.5876   44.7862 H   0  0  0  0  0  0  0  0  0  0  0  0
   22.1204  -23.4655   43.6739 H   0  0  0  0  0  0  0  0  0  0  0  0
   21.1008  -24.9444   43.6739 H   0  0  0  0  0  0  0  0  0  0  0  0
   23.2309  -26.6117   45.8022 H   0  0  0  0  0  0  0  0  0  0  0  0
   21.8042  -26.6346   44.6658 H   0  0  0  0  0  0  0  0  0  0  0  0
   23.7900  -25.1953   43.3019 H   0  0  0  0  0  0  0  0  0  0  0  0
   24.6525  -26.5905   44.0772 H   0  0  0  0  0  0  0  0  0  0  0  0
   21.9816  -25.5578   41.7501 H   0  0  0  0  0  0  0  0  0  0  0  0
   21.0343  -27.0031   39.9686 H   0  0  0  0  0  0  0  0  0  0  0  0
   19.1645  -32.5906   40.8141 H   0  0  0  0  0  0  0  0  0  0  0  0
   17.9989  -34.2081   39.3126 H   0  0  0  0  0  0  0  0  0  0  0  0
   18.2583  -34.0244   36.8363 H   0  0  0  0  0  0  0  0  0  0  0  0
   19.8640  -31.4510   35.1620 H   0  0  0  0  0  0  0  0  0  0  0  0
   23.1230  -28.5830   37.0700 H   0  0  0  0  0  0  0  0  0  0  0  0
   23.2257  -30.3724   41.5322 H   0  0  0  0  0  0  0  0  0  0  0  0
  1  2  1  0
  2  3  1  0
  2  4  1  0
  4  5  1  0
  5  6  1  0
  6  7  2  0
  7  8  1  0
  8  9  2  0
  9 10  1  0
 10 11  1  0
 11 12  1  0
 12 13  2  0
 13 14  1  0
 14 15  2  0
 15 16  1  0
 16 17  1  0
 16 18  2  0
 18 19  1  0
 19 20  2  0
 19 21  1  0
 21 22  1  0
  9 23  1  0
 23 24  2  0
 24 25  1  0
 25 26  1  0
 25 27  1  0
 25 28  1  0
 24  6  1  0
 21 10  2  0
 18 12  1  0
  1 29  1  0
  1 30  1  0
  1 31  1  0
  2 32  1  0
  3 33  1  0
  3 34  1  0
  3 35  1  0
  4 36  1  0
  4 37  1  0
  5 38  1  0
  5 39  1  0
  7 40  1  0
  8 41  1  0
 13 42  1  0
 14 43  1  0
 15 44  1  0
 17 45  1  0
 22 46  1  0
 23 47  1  0
M  CHG  1   2   1
M  END
>  <meeko>  (3) 
{"is_sidechain": [false], "free_energy": -9.481, "intermolecular_energy": -12.724, "internal_energy": -0.65}

$$$$
cand_024_out
     RDKit          3D

 47 49  0  0  0  0  0  0  0  0999 V2000
   21.6350  -24.6310   45.1300 C   0  0  0  0  0  0  0  0  0  0  0  0
   21.0040  -24.0360   43.9490 N   0  0  0  0  0  0  0  0  0  0  0  0
   19.6680  -24.6130   43.7670 C   0  0  0  0  0  0  0  0  0  0  0  0
   21.8110  -24.2470   42.7310 C   0  0  0  0  0  0  0  0  0  0  0  0
   22.7450  -25.4680   42.8270 C   0  0  0  0  0  0  0  0  0  0  0  0
   22.3260  -26.5760   41.8770 C   0  0  0  0  0  0  0  0  0  0  0  0
   21.4170  -26.2630   40.8530 C   0  0  0  0  0  0  0  0  0  0  0  0
   20.9840  -27.2390   39.9530 C   0  0  0  0  0  0  0  0  0  0  0  0
   21.4500  -28.5540   40.0450 C   0  0  0  0  0  0  0  0  0  0  0  0
   20.9660  -29.5760   39.0930 C   0  0  0  0  0  0  0  0  0  0  0  0
   20.2350  -30.5850   39.7080 O   0  0  0  0  0  0  0  0  0  0  0  0
   19.7240  -31.5980   38.9360 C   0  0  0  0  0  0  0  0  0  0  0  0
   19.0090  -32.5980   39.5950 C   0  0  0  0  0  0  0  0  0  0  0  0
   18.4610  -33.6570   38.8680 C   0  0  0  0  0  0  0  0  0  0  0  0
   18.6290  -33.7160   37.4840 C   0  0  0  0  0  0  0  0  0  0  0  0
   19.3420  -32.7160   36.8280 C   0  0  0  0  0  0  0  0  0  0  0  0
   19.4680  -32.8350   35.4710 O   0  0  0  0  0  0  0  0  0  0  0  0
   19.8910  -31.6570   37.5550 C   0  0  0  0  0  0  0  0  0  0  0  0
   20.6480  -30.5860   36.9050 C   0  0  0  0  0  0  0  0  0  0  0  0
   20.8320  -30.5630   35.6910 O   0  0  0  0  0  0  0  0  0  0  0  0
   21.1940  -29.5130   37.7680 C   0  0  0  0  0  0  0  0  0  0  0  0
   21.8960  -28.4980   37.1450 O   0  0  0  0  0  0  0  0  0  0  0  0
   22.3470  -28.8710   41.0760 C   0  0  0  0  0  0  0  0  0  0  0  0
   22.7960  -27.9010   41.9990 C   0  0  0  0  0  0  0  0  0  0  0  0
   23.7810  -28.3160   43.0700 C   0  0  0  0  0  0  0  0  0  0  0  0
   24.6840  -27.3450   43.3910 F   0  0  0  0  0  0  0  0  0  0  0  0
   23.1720  -28.6530   44.2420 F   0  0  0  0  0  0  0  0  0  0  0  0
   24.5300  -29.3980   42.7120 F   0  0  0  0  0  0  0  0  0  0  0  0
   21.1847  -24.2064   46.0394 H   0  0  0  0  0  0  0  0  0  0  0  0
   21.4808  -25.7201   45.1186 H   0  0  0  0  0  0  0  0  0  0  0  0
   22.7132  -24.4132   45.1186 H   0  0  0  0  0  0  0  0  0  0  0  0
   20.9310  -23.0290   44.1000 H   0  0  0  0  0  0  0  0  0  0  0  0
   19.2158  -24.8083   44.7506 H   0  0  0  0  0  0  0  0  0  0  0  0
   19.0370  -23.9072   43.2070 H   0  0  0  0  0  0  0  0  0  0  0  0
   19.7492  -25.5563   43.2070 H   0  0  0  0  0  0  0  0  0  0  0  0
   21.1289  -24.3944   41.8807 H   0  0  0  0  0  0  0  0  0  0  0  0
   22.4463  -23.3584   42.6013 H   0  0  0  0  0  0  0  0  0  0  0  0
   23.7690  -25.1533   42.5771 H   0  0  0  0  0  0  0  0  0  0  0  0
   22.6906  -25.8596   43.8535 H   0  0  0  0  0  0  0  0  0  0  0  0
   21.0406  -25.2337   40.7586 H   0  0  0  0  0  0  0  0  0  0  0  0
   20.2679  -26.9701   39.1625 H   0  0  0  0  0  0  0  0  0  0  0  0
   18.8769  -32.5526   40.6861 H   0  0  0  0  0  0  0  0  0  0  0  0
   17.8963  -34.4455   39.3870 H   0  0  0  0  0  0  0  0  0  0  0  0
   18.1988  -34.5513   36.9121 H   0  0  0  0  0  0  0  0  0  0  0  0
   18.7080  -32.7830   34.9240 H   0  0  0  0  0  0  0  0  0  0  0  0
   22.1270  -27.7260   37.6230 H   0  0  0  0  0  0  0  0  0  0  0  0
   22.7111  -29.9049   41.1681 H   0  0  0  0  0  0  0  0  0  0  0  0
  1  2  1  0
  2  3  1  0
  2  4  1  0
  4  5  1  0
  5  6  1  0
  6  7  2  0
  7  8  1  0
  8  9  2  0
  9 10  1  0
 10 11  1  0
 11 12  1  0
 12 13  2  0
 13 14  1  0
 14 15  2  0
 15 16  1  0
 16 17  1  0
 16 18  2  0
 18 19  1  0
 19 20  2  0
 19 21  1  0
 21 22  1  0
  9 23  1  0
 23 24  2  0
 24 25  1  0
 25 26  1  0
 25 27  1  0
 25 28  1  0
 24  6  1  0
 21 10  2  0
 18 12  1  0
  1 29  1  0
  1 30  1  0
  1 31  1  0
  2 32  1  0
  3 33  1  0
  3 34  1  0
  3 35  1  0
  4 36  1  0
  4 37  1  0
  5 38  1  0
  5 39  1  0
  7 40  1  0
  8 41  1  0
 13 42  1  0
 14 43  1  0
 15 44  1  0
 17 45  1  0
 22 46  1  0
 23 47  1  0
M  CHG  1   2   1
M  END
>  <meeko>  (4) 
{"is_sidechain": [false], "free_energy": -9.401, "intermolecular_energy": -12.776, "internal_energy": -0.489}

$$$$
cand_024_out
     RDKit          3D

 47 49  0  0  0  0  0  0  0  0999 V2000
   20.0870  -32.4310   32.5540 C   0  0  0  0  0  0  0  0  0  0  0  0
   20.5990  -32.7780   33.8820 N   0  0  0  0  0  0  0  0  0  0  0  0
   19.9060  -33.9740   34.3740 C   0  0  0  0  0  0  0  0  0  0  0  0
   20.4290  -31.6700   34.8420 C   0  0  0  0  0  0  0  0  0  0  0  0
   19.6800  -32.0860   36.1210 C   0  0  0  0  0  0  0  0  0  0  0  0
   20.1860  -31.3380   37.3420 C   0  0  0  0  0  0  0  0  0  0  0  0
   20.9670  -30.1870   37.1370 C   0  0  0  0  0  0  0  0  0  0  0  0
   21.4720  -29.4610   38.2170 C   0  0  0  0  0  0  0  0  0  0  0  0
   21.2080  -29.8570   39.5330 C   0  0  0  0  0  0  0  0  0  0  0  0
   21.7670  -29.0830   40.6610 C   0  0  0  0  0  0  0  0  0  0  0  0
   20.9610  -28.0160   41.0380 O   0  0  0  0  0  0  0  0  0  0  0  0
   21.3640  -27.2170   42.0780 C   0  0  0  0  0  0  0  0  0  0  0  0
   20.5320  -26.1480   42.4140 C   0  0  0  0  0  0  0  0  0  0  0  0
   20.8820  -25.2960   43.4630 C   0  0  0  0  0  0  0  0  0  0  0  0
   22.0640  -25.5120   44.1750 C   0  0  0  0  0  0  0  0  0  0  0  0
   22.8920  -26.5790   43.8380 C   0  0  0  0  0  0  0  0  0  0  0  0
   24.0330  -26.7330   44.5770 O   0  0  0  0  0  0  0  0  0  0  0  0
   22.5420  -27.4310   42.7870 C   0  0  0  0  0  0  0  0  0  0  0  0
   23.3840  -28.5640   42.4010 C   0  0  0  0  0  0  0  0  0  0  0  0
   24.4340  -28.8240   42.9830 O   0  0  0  0  0  0  0  0  0  0  0  0
   22.9250  -29.4020   41.2690 C   0  0  0  0  0  0  0  0  0  0  0  0
   23.7200  -30.4780   40.9180 O   0  0  0  0  0  0  0  0  0  0  0  0
   20.4410  -31.0130   39.7370 C   0  0  0  0  0  0  0  0  0  0  0  0
   19.9230  -31.7650   38.6610 C   0  0  0  0  0  0  0  0  0  0  0  0
   19.0860  -32.9890   38.9630 C   0  0  0  0  0  0  0  0  0  0  0  0
   17.8210  -32.9280   38.4550 F   0  0  0  0  0  0  0  0  0  0  0  0
   19.6280  -34.1340   38.4610 F   0  0  0  0  0  0  0  0  0  0  0  0
   18.9260  -33.2050   40.3000 F   0  0  0  0  0  0  0  0  0  0  0  0
   19.1806  -31.8167   32.6595 H   0  0  0  0  0  0  0  0  0  0  0  0
   20.8519  -31.8644   32.0027 H   0  0  0  0  0  0  0  0  0  0  0  0
   19.8441  -33.3513   32.0027 H   0  0  0  0  0  0  0  0  0  0  0  0
   21.5990  -32.9640   33.7980 H   0  0  0  0  0  0  0  0  0  0  0  0
   19.9072  -33.9720   35.4740 H   0  0  0  0  0  0  0  0  0  0  0  0
   18.8685  -33.9731   34.0084 H   0  0  0  0  0  0  0  0  0  0  0  0
   20.4228  -34.8736   34.0084 H   0  0  0  0  0  0  0  0  0  0  0  0
   21.4243  -31.2969   35.1253 H   0  0  0  0  0  0  0  0  0  0  0  0
   19.8242  -30.8969   34.3455 H   0  0  0  0  0  0  0  0  0  0  0  0
   18.6088  -31.8720   35.9914 H   0  0  0  0  0  0  0  0  0  0  0  0
   19.8529  -33.1601   36.2833 H   0  0  0  0  0  0  0  0  0  0  0  0
   21.1831  -29.8539   36.1112 H   0  0  0  0  0  0  0  0  0  0  0  0
   22.0850  -28.5667   38.0314 H   0  0  0  0  0  0  0  0  0  0  0  0
   19.6015  -25.9770   41.8529 H   0  0  0  0  0  0  0  0  0  0  0  0
   20.2263  -24.4538   43.7291 H   0  0  0  0  0  0  0  0  0  0  0  0
   22.3402  -24.8399   45.0008 H   0  0  0  0  0  0  0  0  0  0  0  0
   24.8570  -26.4480   44.2310 H   0  0  0  0  0  0  0  0  0  0  0  0
   23.3250  -31.2910   40.6680 H   0  0  0  0  0  0  0  0  0  0  0  0
   20.2370  -31.3435   40.7662 H   0  0  0  0  0  0  0  0  0  0  0  0
  1  2  1  0
  2  3  1  0
  2  4  1  0
  4  5  1  0
  5  6  1  0
  6  7  2  0
  7  8  1  0
  8  9  2  0
  9 10  1  0
 10 11  1  0
 11 12  1  0
 12 13  2  0
 13 14  1  0
 14 15  2  0
 15 16  1  0
 16 17  1  0
 16 18  2  0
 18 19  1  0
 19 20  2  0
 19 21  1  0
 21 22  1  0
  9 23  1  0
 23 24  2  0
 24 25  1  0
 25 26  1  0
 25 27  1  0
 25 28  1  0
 24  6  1  0
 21 10  2  0
 18 12  1  0
  1 29  1  0
  1 30  1  0
  1 31  1  0
  2 32  1  0
  3 33  1  0
  3 34  1  0
  3 35  1  0
  4 36  1  0
  4 37  1  0
  5 38  1  0
  5 39  1  0
  7 40  1  0
  8 41  1  0
 13 42  1  0
 14 43  1  0
 15 44  1  0
 17 45  1  0
 22 46  1  0
 23 47  1  0
M  CHG  1   2   1
M  END
>  <meeko>  (5) 
{"is_sidechain": [false], "free_energy": -9.255, "intermolecular_energy": -12.334, "internal_energy": -0.734}

$$$$
cand_024_out
     RDKit          3D

 47 49  0  0  0  0  0  0  0  0999 V2000
   24.1290  -26.0950   43.4690 C   0  0  0  0  0  0  0  0  0  0  0  0
   23.2700  -27.1590   43.9970 N   0  0  0  0  0  0  0  0  0  0  0  0
   23.9740  -28.4420   43.9060 C   0  0  0  0  0  0  0  0  0  0  0  0
   21.9870  -27.2380   43.2720 C   0  0  0  0  0  0  0  0  0  0  0  0
   22.0960  -26.8070   41.7980 C   0  0  0  0  0  0  0  0  0  0  0  0
   21.5690  -27.8750   40.8560 C   0  0  0  0  0  0  0  0  0  0  0  0
   22.4150  -28.9490   40.5310 C   0  0  0  0  0  0  0  0  0  0  0  0
   21.9950  -29.9580   39.6620 C   0  0  0  0  0  0  0  0  0  0  0  0
   20.7160  -29.9280   39.0970 C   0  0  0  0  0  0  0  0  0  0  0  0
   20.2970  -30.9970   38.1660 C   0  0  0  0  0  0  0  0  0  0  0  0
   20.6380  -30.7300   36.8460 O   0  0  0  0  0  0  0  0  0  0  0  0
   20.3080  -31.6450   35.8790 C   0  0  0  0  0  0  0  0  0  0  0  0
   20.6560  -31.3300   34.5640 C   0  0  0  0  0  0  0  0  0  0  0  0
   20.3510  -32.2190   33.5310 C   0  0  0  0  0  0  0  0  0  0  0  0
   19.6980  -33.4200   33.8120 C   0  0  0  0  0  0  0  0  0  0  0  0
   19.3520  -33.7320   35.1240 C   0  0  0  0  0  0  0  0  0  0  0  0
   18.7150  -34.9250   35.3280 O   0  0  0  0  0  0  0  0  0  0  0  0
   19.6570  -32.8430   36.1570 C   0  0  0  0  0  0  0  0  0  0  0  0
   19.3110  -33.1320   37.5500 C   0  0  0  0  0  0  0  0  0  0  0  0
   18.7420  -34.1710   37.8770 O   0  0  0  0  0  0  0  0  0  0  0  0
   19.6720  -32.1200   38.5690 C   0  0  0  0  0  0  0  0  0  0  0  0
   19.3540  -32.4060   39.8840 O   0  0  0  0  0  0  0  0  0  0  0  0
   19.8760  -28.8500   39.4090 C   0  0  0  0  0  0  0  0  0  0  0  0
   20.2810  -27.8170   40.2830 C   0  0  0  0  0  0  0  0  0  0  0  0
   19.3090  -26.6980   40.5880 C   0  0  0  0  0  0  0  0  0  0  0  0
   19.8130  -25.4530   40.3490 F   0  0  0  0  0  0  0  0  0  0  0  0
   18.1660  -26.7790   39.8520 F   0  0  0  0  0  0  0  0  0  0  0  0
   18.9130  -26.6810   41.8930 F   0  0  0  0  0  0  0  0  0  0  0  0
   24.5785  -25.5382   44.3044 H   0  0  0  0  0  0  0  0  0  0  0  0
   24.9254  -26.5384   42.8532 H   0  0  0  0  0  0  0  0  0  0  0  0
   23.5277  -25.4100   42.8532 H   0  0  0  0  0  0  0  0  0  0  0  0
   23.0610  -26.9440   44.9720 H   0  0  0  0  0  0  0  0  0  0  0  0
   24.1810  -28.8193   44.9183 H   0  0  0  0  0  0  0  0  0  0  0  0
   23.3472  -29.1667   43.3657 H   0  0  0  0  0  0  0  0  0  0  0  0
   24.9220  -28.3026   43.3657 H   0  0  0  0  0  0  0  0  0  0  0  0
   21.6292  -28.2776   43.3068 H   0  0  0  0  0  0  0  0  0  0  0  0
   21.2897  -26.5444   43.7648 H   0  0  0  0  0  0  0  0  0  0  0  0
   21.5131  -25.8855   41.6528 H   0  0  0  0  0  0  0  0  0  0  0  0
   23.1592  -26.6437   41.5680 H   0  0  0  0  0  0  0  0  0  0  0  0
   23.4235  -28.9955   40.9679 H   0  0  0  0  0  0  0  0  0  0  0  0
   22.6776  -30.7856   39.4191 H   0  0  0  0  0  0  0  0  0  0  0  0
   21.1697  -30.3830   34.3420 H   0  0  0  0  0  0  0  0  0  0  0  0
   20.6257  -31.9724   32.4948 H   0  0  0  0  0  0  0  0  0  0  0  0
   19.4570  -34.1193   32.9978 H   0  0  0  0  0  0  0  0  0  0  0  0
   18.9440  -35.6730   34.8110 H   0  0  0  0  0  0  0  0  0  0  0  0
   19.3230  -31.7180   40.5190 H   0  0  0  0  0  0  0  0  0  0  0  0
   18.8726  -28.8074   38.9603 H   0  0  0  0  0  0  0  0  0  0  0  0
  1  2  1  0
  2  3  1  0
  2  4  1  0
  4  5  1  0
  5  6  1  0
  6  7  2  0
  7  8  1  0
  8  9  2  0
  9 10  1  0
 10 11  1  0
 11 12  1  0
 12 13  2  0
 13 14  1  0
 14 15  2  0
 15 16  1  0
 16 17  1  0
 16 18  2  0
 18 19  1  0
 19 20  2  0
 19 21  1  0
 21 22  1  0
  9 23  1  0
 23 24  2  0
 24 25  1  0
 25 26  1  0
 25 27  1  0
 25 28  1  0
 24  6  1  0
 21 10  2  0
 18 12  1  0
  1 29  1  0
  1 30  1  0
  1 31  1  0
  2 32  1  0
  3 33  1  0
  3 34  1  0
  3 35  1  0
  4 36  1  0
  4 37  1  0
  5 38  1  0
  5 39  1  0
  7 40  1  0
  8 41  1  0
 13 42  1  0
 14 43  1  0
 15 44  1  0
 17 45  1  0
 22 46  1  0
 23 47  1  0
M  CHG  1   2   1
M  END
>  <meeko>  (6) 
{"is_sidechain": [false], "free_energy": -9.147, "intermolecular_energy": -12.053, "internal_energy": -0.87}

$$$$
cand_024_out
     RDKit          3D

 47 49  0  0  0  0  0  0  0  0999 V2000
   18.8100  -35.4400   38.8820 C   0  0  0  0  0  0  0  0  0  0  0  0
   18.5050  -35.0690   37.4980 N   0  0  0  0  0  0  0  0  0  0  0  0
   19.6360  -35.4280   36.6370 C   0  0  0  0  0  0  0  0  0  0  0  0
   18.2140  -33.6280   37.3680 C   0  0  0  0  0  0  0  0  0  0  0  0
   19.3210  -32.8490   36.6340 C   0  0  0  0  0  0  0  0  0  0  0  0
   19.8920  -31.7340   37.4920 C   0  0  0  0  0  0  0  0  0  0  0  0
   19.8700  -31.8940   38.8880 C   0  0  0  0  0  0  0  0  0  0  0  0
   20.3690  -30.9010   39.7330 C   0  0  0  0  0  0  0  0  0  0  0  0
   20.9120  -29.7220   39.2100 C   0  0  0  0  0  0  0  0  0  0  0  0
   21.4190  -28.6760   40.1230 C   0  0  0  0  0  0  0  0  0  0  0  0
   22.3570  -29.1560   41.0280 O   0  0  0  0  0  0  0  0  0  0  0  0
   22.9110  -28.2860   41.9320 C   0  0  0  0  0  0  0  0  0  0  0  0
   23.8380  -28.8130   42.8320 C   0  0  0  0  0  0  0  0  0  0  0  0
   24.4410  -27.9810   43.7790 C   0  0  0  0  0  0  0  0  0  0  0  0
   24.1160  -26.6240   43.8250 C   0  0  0  0  0  0  0  0  0  0  0  0
   23.1910  -26.1010   42.9260 C   0  0  0  0  0  0  0  0  0  0  0  0
   22.9200  -24.7640   43.0260 O   0  0  0  0  0  0  0  0  0  0  0  0
   22.5880  -26.9330   41.9800 C   0  0  0  0  0  0  0  0  0  0  0  0
   21.6100  -26.4240   41.0160 C   0  0  0  0  0  0  0  0  0  0  0  0
   21.2780  -25.2410   40.9890 O   0  0  0  0  0  0  0  0  0  0  0  0
   21.0250  -27.3910   40.0600 C   0  0  0  0  0  0  0  0  0  0  0  0
   20.1120  -26.8990   39.1440 O   0  0  0  0  0  0  0  0  0  0  0  0
   20.9220  -29.5560   37.8170 C   0  0  0  0  0  0  0  0  0  0  0  0
   20.4190  -30.5450   36.9440 C   0  0  0  0  0  0  0  0  0  0  0  0
   20.4860  -30.3020   35.4520 C   0  0  0  0  0  0  0  0  0  0  0  0
   19.3080  -30.5390   34.8040 F   0  0  0  0  0  0  0  0  0  0  0  0
   20.8220  -29.0180   35.1430 F   0  0  0  0  0  0  0  0  0  0  0  0
   21.4050  -31.0910   34.8260 F   0  0  0  0  0  0  0  0  0  0  0  0
   18.2641  -34.7760   39.5684 H   0  0  0  0  0  0  0  0  0  0  0  0
   18.5037  -36.4816   39.0584 H   0  0  0  0  0  0  0  0  0  0  0  0
   19.8912  -35.3409   39.0584 H   0  0  0  0  0  0  0  0  0  0  0  0
   17.6700  -35.5800   37.2080 H   0  0  0  0  0  0  0  0  0  0  0  0
   20.4994  -35.7021   37.2611 H   0  0  0  0  0  0  0  0  0  0  0  0
   19.3569  -36.2817   36.0020 H   0  0  0  0  0  0  0  0  0  0  0  0
   19.9003  -34.5696   36.0020 H   0  0  0  0  0  0  0  0  0  0  0  0
   17.2741  -33.5103   36.8087 H   0  0  0  0  0  0  0  0  0  0  0  0
   18.1441  -33.2157   38.3854 H   0  0  0  0  0  0  0  0  0  0  0  0
   20.1308  -33.5452   36.3702 H   0  0  0  0  0  0  0  0  0  0  0  0
   18.8797  -32.3953   35.7343 H   0  0  0  0  0  0  0  0  0  0  0  0
   19.4535  -32.8153   39.3213 H   0  0  0  0  0  0  0  0  0  0  0  0
   20.3349  -31.0471   40.8227 H   0  0  0  0  0  0  0  0  0  0  0  0
   24.0938  -29.8822   42.7961 H   0  0  0  0  0  0  0  0  0  0  0  0
   25.1722  -28.3955   44.4886 H   0  0  0  0  0  0  0  0  0  0  0  0
   24.5903  -25.9691   44.5707 H   0  0  0  0  0  0  0  0  0  0  0  0
   22.6870  -24.2740   42.2620 H   0  0  0  0  0  0  0  0  0  0  0  0
   20.3840  -26.2720   38.5020 H   0  0  0  0  0  0  0  0  0  0  0  0
   21.3337  -28.6284   37.3926 H   0  0  0  0  0  0  0  0  0  0  0  0
  1  2  1  0
  2  3  1  0
  2  4  1  0
  4  5  1  0
  5  6  1  0
  6  7  2  0
  7  8  1  0
  8  9  2  0
  9 10  1  0
 10 11  1  0
 11 12  1  0
 12 13  2  0
 13 14  1  0
 14 15  2  0
 15 16  1  0
 16 17  1  0
 16 18  2  0
 18 19  1  0
 19 20  2  0
 19 21  1  0
 21 22  1  0
  9 23  1  0
 23 24  2  0
 24 25  1  0
 25 26  1  0
 25 27  1  0
 25 28  1  0
 24  6  1  0
 21 10  2  0
 18 12  1  0
  1 29  1  0
  1 30  1  0
  1 31  1  0
  2 32  1  0
  3 33  1  0
  3 34  1  0
  3 35  1  0
  4 36  1  0
  4 37  1  0
  5 38  1  0
  5 39  1  0
  7 40  1  0
  8 41  1  0
 13 42  1  0
 14 43  1  0
 15 44  1  0
 17 45  1  0
 22 46  1  0
 23 47  1  0
M  CHG  1   2   1
M  END
>  <meeko>  (7) 
{"is_sidechain": [false], "free_energy": -9.004, "intermolecular_energy": -12.186, "internal_energy": -0.544}

$$$$
cand_024_out
     RDKit          3D

 47 49  0  0  0  0  0  0  0  0999 V2000
   21.2150  -21.5240   45.6750 C   0  0  0  0  0  0  0  0  0  0  0  0
   21.5290  -22.4890   44.6170 N   0  0  0  0  0  0  0  0  0  0  0  0
   21.2090  -21.9020   43.3120 C   0  0  0  0  0  0  0  0  0  0  0  0
   20.7900  -23.7540   44.7920 C   0  0  0  0  0  0  0  0  0  0  0  0
   21.7050  -24.9910   44.8300 C   0  0  0  0  0  0  0  0  0  0  0  0
   21.5570  -25.8430   43.5820 C   0  0  0  0  0  0  0  0  0  0  0  0
   20.3660  -25.7360   42.8440 C   0  0  0  0  0  0  0  0  0  0  0  0
   20.1630  -26.5000   41.6940 C   0  0  0  0  0  0  0  0  0  0  0  0
   21.1440  -27.3890   41.2420 C   0  0  0  0  0  0  0  0  0  0  0  0
   20.9010  -28.2010   40.0310 C   0  0  0  0  0  0  0  0  0  0  0  0
   20.5130  -29.5030   40.3210 O   0  0  0  0  0  0  0  0  0  0  0  0
   20.2530  -30.3630   39.2850 C   0  0  0  0  0  0  0  0  0  0  0  0
   19.8810  -31.6660   39.6210 C   0  0  0  0  0  0  0  0  0  0  0  0
   19.6010  -32.5920   38.6140 C   0  0  0  0  0  0  0  0  0  0  0  0
   19.6940  -32.2170   37.2720 C   0  0  0  0  0  0  0  0  0  0  0  0
   20.0660  -30.9170   36.9400 C   0  0  0  0  0  0  0  0  0  0  0  0
   20.1370  -30.6160   35.6070 O   0  0  0  0  0  0  0  0  0  0  0  0
   20.3460  -29.9900   37.9470 C   0  0  0  0  0  0  0  0  0  0  0  0
   20.7410  -28.6140   37.6410 C   0  0  0  0  0  0  0  0  0  0  0  0
   20.8380  -28.2060   36.4860 O   0  0  0  0  0  0  0  0  0  0  0  0
   21.0230  -27.7140   38.7820 C   0  0  0  0  0  0  0  0  0  0  0  0
   21.3820  -26.4110   38.4840 O   0  0  0  0  0  0  0  0  0  0  0  0
   22.3270  -27.5070   41.9860 C   0  0  0  0  0  0  0  0  0  0  0  0
   22.5530  -26.7470   43.1540 C   0  0  0  0  0  0  0  0  0  0  0  0
   23.8650  -26.9140   43.8900 C   0  0  0  0  0  0  0  0  0  0  0  0
   23.7180  -27.1810   45.2200 F   0  0  0  0  0  0  0  0  0  0  0  0
   24.6200  -27.9330   43.3920 F   0  0  0  0  0  0  0  0  0  0  0  0
   24.6510  -25.8020   43.8310 F   0  0  0  0  0  0  0  0  0  0  0  0
   21.3681  -21.9944   46.6575 H   0  0  0  0  0  0  0  0  0  0  0  0
   21.8747  -20.6489   45.5807 H   0  0  0  0  0  0  0  0  0  0  0  0
   20.1666  -21.2047   45.5807 H   0  0  0  0  0  0  0  0  0  0  0  0
   22.5260  -22.7030   44.6680 H   0  0  0  0  0  0  0  0  0  0  0  0
   20.6872  -20.9448   43.4585 H   0  0  0  0  0  0  0  0  0  0  0  0
   22.1385  -21.7305   42.7492 H   0  0  0  0  0  0  0  0  0  0  0  0
   20.5613  -22.5903   42.7492 H   0  0  0  0  0  0  0  0  0  0  0  0
   20.2305  -23.7040   45.7377 H   0  0  0  0  0  0  0  0  0  0  0  0
   20.1246  -23.8664   43.9234 H   0  0  0  0  0  0  0  0  0  0  0  0
   22.7502  -24.6579   44.9113 H   0  0  0  0  0  0  0  0  0  0  0  0
   21.4153  -25.6029   45.6970 H   0  0  0  0  0  0  0  0  0  0  0  0
   19.5823  -25.0399   43.1776 H   0  0  0  0  0  0  0  0  0  0  0  0
   19.2201  -26.4020   41.1361 H   0  0  0  0  0  0  0  0  0  0  0  0
   19.8086  -31.9628   40.6777 H   0  0  0  0  0  0  0  0  0  0  0  0
   19.3067  -33.6184   38.8782 H   0  0  0  0  0  0  0  0  0  0  0  0
   19.4739  -32.9470   36.4791 H   0  0  0  0  0  0  0  0  0  0  0  0
   20.0450  -31.2960   34.9680 H   0  0  0  0  0  0  0  0  0  0  0  0
   21.4190  -26.1280   37.5910 H   0  0  0  0  0  0  0  0  0  0  0  0
   23.1013  -28.2122   41.6497 H   0  0  0  0  0  0  0  0  0  0  0  0
  1  2  1  0
  2  3  1  0
  2  4  1  0
  4  5  1  0
  5  6  1  0
  6  7  2  0
  7  8  1  0
  8  9  2  0
  9 10  1  0
 10 11  1  0
 11 12  1  0
 12 13  2  0
 13 14  1  0
 14 15  2  0
 15 16  1  0
 16 17  1  0
 16 18  2  0
 18 19  1  0
 19 20  2  0
 19 21  1  0
 21 22  1  0
  9 23  1  0
 23 24  2  0
 24 25  1  0
 25 26  1  0
 25 27  1  0
 25 28  1  0
 24  6  1  0
 21 10  2  0
 18 12  1  0
  1 29  1  0
  1 30  1  0
  1 31  1  0
  2 32  1  0
  3 33  1  0
  3 34  1  0
  3 35  1  0
  4 36  1  0
  4 37  1  0
  5 38  1  0
  5 39  1  0
  7 40  1  0
  8 41  1  0
 13 42  1  0
 14 43  1  0
 15 44  1  0
 17 45  1  0
 22 46  1  0
 23 47  1  0
M  CHG  1   2   1
M  END
>  <meeko>  (8) 
{"is_sidechain": [false], "free_energy": -8.986, "intermolecular_energy": -11.95, "internal_energy": -0.755}

$$$$
cand_024_out
     RDKit          3D

 47 49  0  0  0  0  0  0  0  0999 V2000
   19.0790  -23.2460   43.3470 C   0  0  0  0  0  0  0  0  0  0  0  0
   19.9130  -24.3760   42.9300 N   0  0  0  0  0  0  0  0  0  0  0  0
   21.2570  -23.8940   42.5990 C   0  0  0  0  0  0  0  0  0  0  0  0
   19.3350  -25.0860   41.7720 C   0  0  0  0  0  0  0  0  0  0  0  0
   20.3480  -25.3160   40.6360 C   0  0  0  0  0  0  0  0  0  0  0  0
   20.2280  -26.7100   40.0450 C   0  0  0  0  0  0  0  0  0  0  0  0
   19.3060  -26.9110   39.0040 C   0  0  0  0  0  0  0  0  0  0  0  0
   19.1400  -28.1710   38.4250 C   0  0  0  0  0  0  0  0  0  0  0  0
   19.8930  -29.2650   38.8630 C   0  0  0  0  0  0  0  0  0  0  0  0
   19.6890  -30.5940   38.2480 C   0  0  0  0  0  0  0  0  0  0  0  0
   19.2690  -31.5540   39.1610 O   0  0  0  0  0  0  0  0  0  0  0  0
   19.0400  -32.8320   38.7190 C   0  0  0  0  0  0  0  0  0  0  0  0
   18.6340  -33.7680   39.6710 C   0  0  0  0  0  0  0  0  0  0  0  0
   18.3820  -35.0870   39.2880 C   0  0  0  0  0  0  0  0  0  0  0  0
   18.5370  -35.4700   37.9550 C   0  0  0  0  0  0  0  0  0  0  0  0
   18.9420  -34.5340   37.0060 C   0  0  0  0  0  0  0  0  0  0  0  0
   19.0740  -34.9770   35.7190 O   0  0  0  0  0  0  0  0  0  0  0  0
   19.1950  -33.2150   37.3900 C   0  0  0  0  0  0  0  0  0  0  0  0
   19.6220  -32.2000   36.4250 C   0  0  0  0  0  0  0  0  0  0  0  0
   19.7740  -32.4580   35.2330 O   0  0  0  0  0  0  0  0  0  0  0  0
   19.8700  -30.8320   36.9360 C   0  0  0  0  0  0  0  0  0  0  0  0
   20.2610  -29.8770   36.0160 O   0  0  0  0  0  0  0  0  0  0  0  0
   20.8030  -29.0680   39.9120 C   0  0  0  0  0  0  0  0  0  0  0  0
   20.9860  -27.8040   40.5140 C   0  0  0  0  0  0  0  0  0  0  0  0
   22.0040  -27.6670   41.6260 C   0  0  0  0  0  0  0  0  0  0  0  0
   21.4490  -27.5700   42.8690 F   0  0  0  0  0  0  0  0  0  0  0  0
   22.8610  -28.7240   41.6870 F   0  0  0  0  0  0  0  0  0  0  0  0
   22.7860  -26.5580   41.4940 F   0  0  0  0  0  0  0  0  0  0  0  0
   19.0456  -23.2007   44.4456 H   0  0  0  0  0  0  0  0  0  0  0  0
   19.5053  -22.3111   42.9543 H   0  0  0  0  0  0  0  0  0  0  0  0
   18.0600  -23.3778   42.9543 H   0  0  0  0  0  0  0  0  0  0  0  0
   19.9610  -25.0380   43.7060 H   0  0  0  0  0  0  0  0  0  0  0  0
   21.8137  -23.6944   43.5265 H   0  0  0  0  0  0  0  0  0  0  0  0
   21.7862  -24.6584   42.0110 H   0  0  0  0  0  0  0  0  0  0  0  0
   21.1798  -22.9675   42.0110 H   0  0  0  0  0  0  0  0  0  0  0  0
   18.9622  -26.0636   42.1115 H   0  0  0  0  0  0  0  0  0  0  0  0
   18.5294  -24.4544   41.3694 H   0  0  0  0  0  0  0  0  0  0  0  0
   20.1666  -24.5763   39.8424 H   0  0  0  0  0  0  0  0  0  0  0  0
   21.3598  -25.2084   41.0540 H   0  0  0  0  0  0  0  0  0  0  0  0
   18.7063  -26.0638   38.6398 H   0  0  0  0  0  0  0  0  0  0  0  0
   18.4082  -28.3045   37.6147 H   0  0  0  0  0  0  0  0  0  0  0  0
   18.5126  -33.4671   40.7221 H   0  0  0  0  0  0  0  0  0  0  0  0
   18.0609  -35.8250   40.0379 H   0  0  0  0  0  0  0  0  0  0  0  0
   18.3397  -36.5095   37.6541 H   0  0  0  0  0  0  0  0  0  0  0  0
   19.0150  -35.8930   35.5300 H   0  0  0  0  0  0  0  0  0  0  0  0
   19.7610  -29.0890   35.9170 H   0  0  0  0  0  0  0  0  0  0  0  0
   21.3912  -29.9231   40.2763 H   0  0  0  0  0  0  0  0  0  0  0  0
  1  2  1  0
  2  3  1  0
  2  4  1  0
  4  5  1  0
  5  6  1  0
  6  7  2  0
  7  8  1  0
  8  9  2  0
  9 10  1  0
 10 11  1  0
 11 12  1  0
 12 13  2  0
 13 14  1  0
 14 15  2  0
 15 16  1  0
 16 17  1  0
 16 18  2  0
 18 19  1  0
 19 20  2  0
 19 21  1  0
 21 22  1  0
  9 23  1  0
 23 24  2  0
 24 25  1  0
 25 26  1  0
 25 27  1  0
 25 28  1  0
 24  6  1  0
 21 10  2  0
 18 12  1  0
  1 29  1  0
  1 30  1  0
  1 31  1  0
  2 32  1  0
  3 33  1  0
  3 34  1  0
  3 35  1  0
  4 36  1  0
  4 37  1  0
  5 38  1  0
  5 39  1  0
  7 40  1  0
  8 41  1  0
 13 42  1  0
 14 43  1  0
 15 44  1  0
 17 45  1  0
 22 46  1  0
 23 47  1  0
M  CHG  1   2   1
M  END
>  <meeko>  (9) 
{"is_sidechain": [false], "free_energy": -8.565, "intermolecular_energy": -11.513, "internal_energy": -0.624}

$$$$
