cand_023_out
     RDKit          3D

 47 50  0  0  0  0  0  0  0  0999 V2000
   23.8190  -29.4450   41.6510 C   0  0  0  0  0  0  0  0  0  0  0  0
   22.5320  -29.1940   40.9110 C   0  0  0  0  0  0  0  0  0  0  0  0
   22.0580  -30.1550   39.9990 C   0  0  0  0  0  0  0  0  0  0  0  0
   20.8610  -29.9660   39.2920 C   0  0  0  0  0  0  0  0  0  0  0  0
   20.4100  -30.9860   38.3220 C   0  0  0  0  0  0  0  0  0  0  0  0
   19.9700  -32.1550   38.9320 O   0  0  0  0  0  0  0  0  0  0  0  0
   19.5200  -33.1850   38.1480 C   0  0  0  0  0  0  0  0  0  0  0  0
   19.1010  -34.3440   38.8030 C   0  0  0  0  0  0  0  0  0  0  0  0
   18.6300  -35.4300   38.0630 C   0  0  0  0  0  0  0  0  0  0  0  0
   18.5780  -35.3590   36.6690 C   0  0  0  0  0  0  0  0  0  0  0  0
   18.9980  -34.2010   36.0180 C   0  0  0  0  0  0  0  0  0  0  0  0
   18.9200  -34.1980   34.6520 O   0  0  0  0  0  0  0  0  0  0  0  0
   19.4690  -33.1140   36.7590 C   0  0  0  0  0  0  0  0  0  0  0  0
   19.9180  -31.8790   36.1150 C   0  0  0  0  0  0  0  0  0  0  0  0
   19.8970  -31.7370   34.8940 O   0  0  0  0  0  0  0  0  0  0  0  0
   20.4060  -30.7890   36.9900 C   0  0  0  0  0  0  0  0  0  0  0  0
   20.8160  -29.6210   36.3710 O   0  0  0  0  0  0  0  0  0  0  0  0
   20.1470  -28.7820   39.5030 C   0  0  0  0  0  0  0  0  0  0  0  0
   20.6080  -27.8210   40.4080 C   0  0  0  0  0  0  0  0  0  0  0  0
   21.8020  -28.0080   41.1210 C   0  0  0  0  0  0  0  0  0  0  0  0
   22.2800  -27.0610   42.0510 N   0  0  0  0  0  0  0  0  0  0  0  0
   21.9390  -25.6730   41.7030 C   0  0  0  0  0  0  0  0  0  0  0  0
   22.6980  -24.7250   42.6320 C   0  0  0  0  0  0  0  0  0  0  0  0
   22.4080  -25.0420   44.0980 C   0  0  0  0  0  0  0  0  0  0  0  0
   22.6750  -26.5160   44.4010 C   0  0  0  0  0  0  0  0  0  0  0  0
   21.9240  -27.4280   43.4310 C   0  0  0  0  0  0  0  0  0  0  0  0
   23.6321  -29.4086   42.7344 H   0  0  0  0  0  0  0  0  0  0  0  0
   24.2106  -30.4364   41.3796 H   0  0  0  0  0  0  0  0  0  0  0  0
   24.5545  -28.6734   41.3796 H   0  0  0  0  0  0  0  0  0  0  0  0
   22.6389  -31.0749   39.8368 H   0  0  0  0  0  0  0  0  0  0  0  0
   19.1418  -34.4017   39.9007 H   0  0  0  0  0  0  0  0  0  0  0  0
   18.2991  -36.3435   38.5788 H   0  0  0  0  0  0  0  0  0  0  0  0
   18.2064  -36.2151   36.0867 H   0  0  0  0  0  0  0  0  0  0  0  0
   18.0870  -34.2740   34.2300 H   0  0  0  0  0  0  0  0  0  0  0  0
   20.7510  -28.8040   36.8240 H   0  0  0  0  0  0  0  0  0  0  0  0
   19.2123  -28.6048   38.9508 H   0  0  0  0  0  0  0  0  0  0  0  0
   20.0242  -26.9018   40.5638 H   0  0  0  0  0  0  0  0  0  0  0  0
   22.2247  -25.4738   40.6596 H   0  0  0  0  0  0  0  0  0  0  0  0
   20.8562  -25.5169   41.8174 H   0  0  0  0  0  0  0  0  0  0  0  0
   23.7775  -24.8301   42.4485 H   0  0  0  0  0  0  0  0  0  0  0  0
   22.3690  -23.6959   42.4255 H   0  0  0  0  0  0  0  0  0  0  0  0
   23.0542  -24.4206   44.7354 H   0  0  0  0  0  0  0  0  0  0  0  0
   21.3482  -24.8282   44.3005 H   0  0  0  0  0  0  0  0  0  0  0  0
   23.7541  -26.7101   44.3125 H   0  0  0  0  0  0  0  0  0  0  0  0
   22.3231  -26.7297   45.4211 H   0  0  0  0  0  0  0  0  0  0  0  0
   22.2047  -28.4751   43.6177 H   0  0  0  0  0  0  0  0  0  0  0  0
   20.8400  -27.3119   43.5773 H   0  0  0  0  0  0  0  0  0  0  0  0
  1  2  1  0
  2  3  2  0
  3  4  1  0
  4  5  1  0
  5  6  1  0
  6  7  1  0
  7  8  2  0
  8  9  1  0
  9 10  2  0
 10 11  1  0
 11 12  1  0
 11 13  2  0
 13 14  1  0
 14 15  2  0
 14 16  1  0
 16 17  1  0
  4 18  2  0
 18 19  1  0
 19 20  2  0
 20 21  1  0
 21 22  1  0
 22 23  1  0
 23 24  1  0
 24 25  1  0
 25 26  1  0
 20  2  1  0
 26 21  1  0
 16  5  2  0
 13  7  1  0
  1 27  1  0
  1 28  1  0
  1 29  1  0
  3 30  1  0
  8 31  1  0
  9 32  1  0
 10 33  1  0
 12 34  1  0
 17 35  1  0
 18 36  1  0
 19 37  1  0
 22 38  1  0
 22 39  1  0
 23 40  1  0
 23 41  1  0
 24 42  1  0
 24 43  1  0
 25 44  1  0
 25 45  1  0
 26 46  1  0
 26 47  1  0
M  END
>  <meeko>  (1) 
{"is_sidechain": [false], "free_energy": -9.834, "intermolecular_energy": -11.559, "internal_energy": -0.412}

$$$$
cand_023_out
     RDKit          3D

 47 50  0  0  0  0  0  0  0  0999 V2000
   19.4900  -27.0200   41.2660 C   0  0  0  0  0  0  0  0  0  0  0  0
   20.4750  -28.0500   40.7830 C   0  0  0  0  0  0  0  0  0  0  0  0
   20.0790  -28.9840   39.8080 C   0  0  0  0  0  0  0  0  0  0  0  0
   20.9650  -29.9580   39.3240 C   0  0  0  0  0  0  0  0  0  0  0  0
   20.5040  -30.9390   38.3200 C   0  0  0  0  0  0  0  0  0  0  0  0
   20.0830  -32.1360   38.8870 O   0  0  0  0  0  0  0  0  0  0  0  0
   19.6270  -33.1360   38.0680 C   0  0  0  0  0  0  0  0  0  0  0  0
   19.2270  -34.3250   38.6800 C   0  0  0  0  0  0  0  0  0  0  0  0
   18.7510  -35.3830   37.9030 C   0  0  0  0  0  0  0  0  0  0  0  0
   18.6750  -35.2530   36.5150 C   0  0  0  0  0  0  0  0  0  0  0  0
   19.0750  -34.0660   35.9060 C   0  0  0  0  0  0  0  0  0  0  0  0
   18.9740  -34.0050   34.5430 O   0  0  0  0  0  0  0  0  0  0  0  0
   19.5520  -33.0070   36.6850 C   0  0  0  0  0  0  0  0  0  0  0  0
   19.9810  -31.7420   36.0860 C   0  0  0  0  0  0  0  0  0  0  0  0
   19.9380  -31.5490   34.8720 O   0  0  0  0  0  0  0  0  0  0  0  0
   20.4770  -30.6860   36.9980 C   0  0  0  0  0  0  0  0  0  0  0  0
   20.8680  -29.4910   36.4220 O   0  0  0  0  0  0  0  0  0  0  0  0
   22.2620  -29.9920   39.8480 C   0  0  0  0  0  0  0  0  0  0  0  0
   22.6670  -29.0670   40.8150 C   0  0  0  0  0  0  0  0  0  0  0  0
   21.7850  -28.0890   41.2980 C   0  0  0  0  0  0  0  0  0  0  0  0
   22.1740  -27.1350   42.2640 N   0  0  0  0  0  0  0  0  0  0  0  0
   23.0660  -27.6800   43.3000 C   0  0  0  0  0  0  0  0  0  0  0  0
   23.2300  -26.6420   44.4110 C   0  0  0  0  0  0  0  0  0  0  0  0
   23.7350  -25.3130   43.8520 C   0  0  0  0  0  0  0  0  0  0  0  0
   22.8440  -24.8270   42.7090 C   0  0  0  0  0  0  0  0  0  0  0  0
   22.6800  -25.9040   41.6360 C   0  0  0  0  0  0  0  0  0  0  0  0
   19.4801  -27.0096   42.3659 H   0  0  0  0  0  0  0  0  0  0  0  0
   19.7841  -26.0280   40.8926 H   0  0  0  0  0  0  0  0  0  0  0  0
   18.4858  -27.2695   40.8926 H   0  0  0  0  0  0  0  0  0  0  0  0
   19.0516  -28.9497   39.4165 H   0  0  0  0  0  0  0  0  0  0  0  0
   19.2867  -34.4285   39.7735 H   0  0  0  0  0  0  0  0  0  0  0  0
   18.4355  -36.3201   38.3851 H   0  0  0  0  0  0  0  0  0  0  0  0
   18.2998  -36.0867   35.9034 H   0  0  0  0  0  0  0  0  0  0  0  0
   18.7500  -33.1970   34.1260 H   0  0  0  0  0  0  0  0  0  0  0  0
   21.7540  -29.3740   36.1420 H   0  0  0  0  0  0  0  0  0  0  0  0
   22.9711  -30.7553   39.4951 H   0  0  0  0  0  0  0  0  0  0  0  0
   23.6952  -29.1069   41.2038 H   0  0  0  0  0  0  0  0  0  0  0  0
   22.6294  -28.5999   43.7161 H   0  0  0  0  0  0  0  0  0  0  0  0
   24.0473  -27.9131   42.8609 H   0  0  0  0  0  0  0  0  0  0  0  0
   22.2570  -26.4804   44.8981 H   0  0  0  0  0  0  0  0  0  0  0  0
   23.9671  -27.0190   45.1352 H   0  0  0  0  0  0  0  0  0  0  0  0
   23.7331  -24.5609   44.6547 H   0  0  0  0  0  0  0  0  0  0  0  0
   24.7540  -25.4597   43.4647 H   0  0  0  0  0  0  0  0  0  0  0  0
   21.8535  -24.5687   43.1117 H   0  0  0  0  0  0  0  0  0  0  0  0
   23.3184  -23.9477   42.2487 H   0  0  0  0  0  0  0  0  0  0  0  0
   21.9661  -25.5589   40.8736 H   0  0  0  0  0  0  0  0  0  0  0  0
   23.6509  -26.1030   41.1587 H   0  0  0  0  0  0  0  0  0  0  0  0
  1  2  1  0
  2  3  2  0
  3  4  1  0
  4  5  1  0
  5  6  1  0
  6  7  1  0
  7  8  2  0
  8  9  1  0
  9 10  2  0
 10 11  1  0
 11 12  1  0
 11 13  2  0
 13 14  1  0
 14 15  2  0
 14 16  1  0
 16 17  1  0
  4 18  2  0
 18 19  1  0
 19 20  2  0
 20 21  1  0
 21 22  1  0
 22 23  1  0
 23 24  1  0
 24 25  1  0
 25 26  1  0
 20  2  1  0
 26 21  1  0
 16  5  2  0
 13  7  1  0
  1 27  1  0
  1 28  1  0
  1 29  1  0
  3 30  1  0
  8 31  1  0
  9 32  1  0
 10 33  1  0
 12 34  1  0
 17 35  1  0
 18 36  1  0
 19 37  1  0
 22 38  1  0
 22 39  1  0
 23 40  1  0
 23 41  1  0
 24 42  1  0
 24 43  1  0
 25 44  1  0
 25 45  1  0
 26 46  1  0
 26 47  1  0
M  END
>  <meeko>  (2) 
{"is_sidechain": [false], "free_energy": -9.833, "intermolecular_energy": -11.398, "internal_energy": -0.572}

$$$$
cand_023_out
     RDKit          3D

 47 50  0  0  0  0  0  0  0  0999 V2000
   18.4810  -26.2420   39.7950 C   0  0  0  0  0  0  0  0  0  0  0  0
   19.4620  -27.3820   39.8480 C   0  0  0  0  0  0  0  0  0  0  0  0
   19.2680  -28.5020   39.0190 C   0  0  0  0  0  0  0  0  0  0  0  0
   20.1600  -29.5850   39.0310 C   0  0  0  0  0  0  0  0  0  0  0  0
   19.9080  -30.7560   38.1660 C   0  0  0  0  0  0  0  0  0  0  0  0
   19.5200  -31.8840   38.8810 O   0  0  0  0  0  0  0  0  0  0  0  0
   19.2520  -33.0430   38.2010 C   0  0  0  0  0  0  0  0  0  0  0  0
   18.8800  -34.1530   38.9600 C   0  0  0  0  0  0  0  0  0  0  0  0
   18.5910  -35.3640   38.3290 C   0  0  0  0  0  0  0  0  0  0  0  0
   18.6750  -35.4670   36.9390 C   0  0  0  0  0  0  0  0  0  0  0  0
   19.0480  -34.3580   36.1830 C   0  0  0  0  0  0  0  0  0  0  0  0
   19.1100  -34.5270   34.8270 O   0  0  0  0  0  0  0  0  0  0  0  0
   19.3370  -33.1450   36.8150 C   0  0  0  0  0  0  0  0  0  0  0  0
   19.7310  -31.9560   36.0590 C   0  0  0  0  0  0  0  0  0  0  0  0
   19.8210  -31.9650   34.8320 O   0  0  0  0  0  0  0  0  0  0  0  0
   20.0220  -30.7230   36.8250 C   0  0  0  0  0  0  0  0  0  0  0  0
   20.3810  -29.6020   36.0980 O   0  0  0  0  0  0  0  0  0  0  0  0
   21.2510  -29.5350   39.9050 C   0  0  0  0  0  0  0  0  0  0  0  0
   21.4550  -28.4260   40.7320 C   0  0  0  0  0  0  0  0  0  0  0  0
   20.5670  -27.3390   40.7200 C   0  0  0  0  0  0  0  0  0  0  0  0
   20.7580  -26.2010   41.5330 N   0  0  0  0  0  0  0  0  0  0  0  0
   19.9570  -26.2210   42.7670 C   0  0  0  0  0  0  0  0  0  0  0  0
   20.0550  -24.8550   43.4470 C   0  0  0  0  0  0  0  0  0  0  0  0
   21.5110  -24.4750   43.7090 C   0  0  0  0  0  0  0  0  0  0  0  0
   22.3390  -24.5640   42.4270 C   0  0  0  0  0  0  0  0  0  0  0  0
   22.1870  -25.9330   41.7620 C   0  0  0  0  0  0  0  0  0  0  0  0
   18.2182  -25.9366   40.8185 H   0  0  0  0  0  0  0  0  0  0  0  0
   18.9347  -25.3923   39.2639 H   0  0  0  0  0  0  0  0  0  0  0  0
   17.5731  -26.5639   39.2639 H   0  0  0  0  0  0  0  0  0  0  0  0
   18.3979  -28.5293   38.3466 H   0  0  0  0  0  0  0  0  0  0  0  0
   18.8145  -34.0738   40.0552 H   0  0  0  0  0  0  0  0  0  0  0  0
   18.2966  -36.2386   38.9277 H   0  0  0  0  0  0  0  0  0  0  0  0
   18.4472  -36.4216   36.4421 H   0  0  0  0  0  0  0  0  0  0  0  0
   18.4720  -35.0570   34.3910 H   0  0  0  0  0  0  0  0  0  0  0  0
   19.7180  -29.0370   35.7520 H   0  0  0  0  0  0  0  0  0  0  0  0
   21.9567  -30.3779   39.9422 H   0  0  0  0  0  0  0  0  0  0  0  0
   22.3261  -28.4051   41.4033 H   0  0  0  0  0  0  0  0  0  0  0  0
   18.9066  -26.4360   42.5213 H   0  0  0  0  0  0  0  0  0  0  0  0
   20.3367  -27.0008   43.4436 H   0  0  0  0  0  0  0  0  0  0  0  0
   19.5970  -24.0958   42.7959 H   0  0  0  0  0  0  0  0  0  0  0  0
   19.5280  -24.9058   44.4112 H   0  0  0  0  0  0  0  0  0  0  0  0
   21.5506  -23.4446   44.0921 H   0  0  0  0  0  0  0  0  0  0  0  0
   21.9293  -25.1763   44.4461 H   0  0  0  0  0  0  0  0  0  0  0  0
   22.0006  -23.7859   41.7270 H   0  0  0  0  0  0  0  0  0  0  0  0
   23.3981  -24.4195   42.6866 H   0  0  0  0  0  0  0  0  0  0  0  0
   22.7212  -25.9368   40.8004 H   0  0  0  0  0  0  0  0  0  0  0  0
   22.6101  -26.7110   42.4144 H   0  0  0  0  0  0  0  0  0  0  0  0
  1  2  1  0
  2  3  2  0
  3  4  1  0
  4  5  1  0
  5  6  1  0
  6  7  1  0
  7  8  2  0
  8  9  1  0
  9 10  2  0
 10 11  1  0
 11 12  1  0
 11 13  2  0
 13 14  1  0
 14 15  2  0
 14 16  1  0
 16 17  1  0
  4 18  2  0
 18 19  1  0
 19 20  2  0
 20 21  1  0
 21 22  1  0
 22 23  1  0
 23 24  1  0
 24 25  1  0
 25 26  1  0
 20  2  1  0
 26 21  1  0
 16  5  2  0
 13  7  1  0
  1 27  1  0
  1 28  1  0
  1 29  1  0
  3 30  1  0
  8 31  1  0
  9 32  1  0
 10 33  1  0
 12 34  1  0
 17 35  1  0
 18 36  1  0
 19 37  1  0
 22 38  1  0
 22 39  1  0
 23 40  1  0
 23 41  1  0
 24 42  1  0
 24 43  1  0
 25 44  1  0
 25 45  1  0
 26 46  1  0
 26 47  1  0
M  END
>  <meeko>  (3) 
{"is_sidechain": [false], "free_energy": -9.447, "intermolecular_energy": -11.08, "internal_energy": -0.436}

$$$$
cand_023_out
     RDKit          3D

 47 50  0  0  0  0  0  0  0  0999 V2000
   18.5420  -26.4480   39.7300 C   0  0  0  0  0  0  0  0  0  0  0  0
   19.5290  -27.5840   39.7340 C   0  0  0  0  0  0  0  0  0  0  0  0
   19.3190  -28.6880   38.8870 C   0  0  0  0  0  0  0  0  0  0  0  0
   20.2160  -29.7660   38.8540 C   0  0  0  0  0  0  0  0  0  0  0  0
   19.9470  -30.9210   37.9710 C   0  0  0  0  0  0  0  0  0  0  0  0
   20.3340  -30.6970   36.6550 O   0  0  0  0  0  0  0  0  0  0  0  0
   20.1430  -31.6880   35.7280 C   0  0  0  0  0  0  0  0  0  0  0  0
   20.5340  -31.4140   34.4170 C   0  0  0  0  0  0  0  0  0  0  0  0
   20.3690  -32.3820   33.4240 C   0  0  0  0  0  0  0  0  0  0  0  0
   19.8130  -33.6230   33.7410 C   0  0  0  0  0  0  0  0  0  0  0  0
   19.4230  -33.8940   35.0500 C   0  0  0  0  0  0  0  0  0  0  0  0
   18.8860  -35.1290   35.2930 O   0  0  0  0  0  0  0  0  0  0  0  0
   19.5890  -32.9250   36.0440 C   0  0  0  0  0  0  0  0  0  0  0  0
   19.1930  -33.1680   37.4320 C   0  0  0  0  0  0  0  0  0  0  0  0
   18.7030  -34.2380   37.7910 O   0  0  0  0  0  0  0  0  0  0  0  0
   19.4040  -32.0740   38.4070 C   0  0  0  0  0  0  0  0  0  0  0  0
   19.0390  -32.3200   39.7180 O   0  0  0  0  0  0  0  0  0  0  0  0
   21.3290  -29.7290   39.7010 C   0  0  0  0  0  0  0  0  0  0  0  0
   21.5490  -28.6360   40.5450 C   0  0  0  0  0  0  0  0  0  0  0  0
   20.6560  -27.5530   40.5780 C   0  0  0  0  0  0  0  0  0  0  0  0
   20.8630  -26.4320   41.4100 N   0  0  0  0  0  0  0  0  0  0  0  0
   20.1040  -26.4880   42.6690 C   0  0  0  0  0  0  0  0  0  0  0  0
   20.2120  -25.1360   43.3760 C   0  0  0  0  0  0  0  0  0  0  0  0
   21.6720  -24.7460   43.5970 C   0  0  0  0  0  0  0  0  0  0  0  0
   22.4560  -24.7980   42.2860 C   0  0  0  0  0  0  0  0  0  0  0  0
   22.2960  -26.1530   41.5960 C   0  0  0  0  0  0  0  0  0  0  0  0
   18.2997  -26.1691   40.7661 H   0  0  0  0  0  0  0  0  0  0  0  0
   18.9804  -25.5832   39.2105 H   0  0  0  0  0  0  0  0  0  0  0  0
   17.6244  -26.7613   39.2105 H   0  0  0  0  0  0  0  0  0  0  0  0
   18.4321  -28.7060   38.2366 H   0  0  0  0  0  0  0  0  0  0  0  0
   20.9717  -30.4366   34.1658 H   0  0  0  0  0  0  0  0  0  0  0  0
   20.6776  -32.1665   32.3904 H   0  0  0  0  0  0  0  0  0  0  0  0
   19.6833  -34.3850   32.9583 H   0  0  0  0  0  0  0  0  0  0  0  0
   17.9780  -35.2860   35.1250 H   0  0  0  0  0  0  0  0  0  0  0  0
   18.2250  -32.7450   39.9050 H   0  0  0  0  0  0  0  0  0  0  0  0
   22.0390  -30.5692   39.7030 H   0  0  0  0  0  0  0  0  0  0  0  0
   22.4369  -28.6245   41.1942 H   0  0  0  0  0  0  0  0  0  0  0  0
   19.0480  -26.7082   42.4536 H   0  0  0  0  0  0  0  0  0  0  0  0
   20.5132  -27.2789   43.3148 H   0  0  0  0  0  0  0  0  0  0  0  0
   19.7245  -24.3675   42.7581 H   0  0  0  0  0  0  0  0  0  0  0  0
   19.7191  -25.2141   44.3563 H   0  0  0  0  0  0  0  0  0  0  0  0
   21.7143  -23.7239   44.0014 H   0  0  0  0  0  0  0  0  0  0  0  0
   22.1225  -25.4584   44.3038 H   0  0  0  0  0  0  0  0  0  0  0  0
   22.0856  -24.0086   41.6155 H   0  0  0  0  0  0  0  0  0  0  0  0
   23.5218  -24.6478   42.5128 H   0  0  0  0  0  0  0  0  0  0  0  0
   22.7968  -26.1293   40.6169 H   0  0  0  0  0  0  0  0  0  0  0  0
   22.7497  -26.9405   42.2157 H   0  0  0  0  0  0  0  0  0  0  0  0
  1  2  1  0
  2  3  2  0
  3  4  1  0
  4  5  1  0
  5  6  1  0
  6  7  1  0
  7  8  2  0
  8  9  1  0
  9 10  2  0
 10 11  1  0
 11 12  1  0
 11 13  2  0
 13 14  1  0
 14 15  2  0
 14 16  1  0
 16 17  1  0
  4 18  2  0
 18 19  1  0
 19 20  2  0
 20 21  1  0
 21 22  1  0
 22 23  1  0
 23 24  1  0
 24 25  1  0
 25 26  1  0
 20  2  1  0
 26 21  1  0
 16  5  2  0
 13  7  1  0
  1 27  1  0
  1 28  1  0
  1 29  1  0
  3 30  1  0
  8 31  1  0
  9 32  1  0
 10 33  1  0
 12 34  1  0
 17 35  1  0
 18 36  1  0
 19 37  1  0
 22 38  1  0
 22 39  1  0
 23 40  1  0
 23 41  1  0
 24 42  1  0
 24 43  1  0
 25 44  1  0
 25 45  1  0
 26 46  1  0
 26 47  1  0
M  END
>  <meeko>  (4) 
{"is_sidechain": [false], "free_energy": -9.4, "intermolecular_energy": -10.955, "internal_energy": -0.506}

$$$$
cand_023_out
     RDKit          3D

 47 50  0  0  0  0  0  0  0  0999 V2000
   18.3480  -32.3070   39.2900 C   0  0  0  0  0  0  0  0  0  0  0  0
   19.4150  -31.3670   38.7960 C   0  0  0  0  0  0  0  0  0  0  0  0
   19.8790  -30.3410   39.6390 C   0  0  0  0  0  0  0  0  0  0  0  0
   20.8750  -29.4450   39.2220 C   0  0  0  0  0  0  0  0  0  0  0  0
   21.3170  -28.3630   40.1260 C   0  0  0  0  0  0  0  0  0  0  0  0
   22.2400  -28.7910   41.0730 O   0  0  0  0  0  0  0  0  0  0  0  0
   22.7360  -27.8870   41.9750 C   0  0  0  0  0  0  0  0  0  0  0  0
   23.6500  -28.3640   42.9160 C   0  0  0  0  0  0  0  0  0  0  0  0
   24.1940  -27.4950   43.8620 C   0  0  0  0  0  0  0  0  0  0  0  0
   23.8260  -26.1470   43.8690 C   0  0  0  0  0  0  0  0  0  0  0  0
   22.9140  -25.6730   42.9300 C   0  0  0  0  0  0  0  0  0  0  0  0
   22.5970  -24.3440   42.9920 O   0  0  0  0  0  0  0  0  0  0  0  0
   22.3680  -26.5440   41.9820 C   0  0  0  0  0  0  0  0  0  0  0  0
   21.4080  -26.0870   40.9770 C   0  0  0  0  0  0  0  0  0  0  0  0
   21.0390  -24.9160   40.9150 O   0  0  0  0  0  0  0  0  0  0  0  0
   20.8840  -27.0910   40.0230 C   0  0  0  0  0  0  0  0  0  0  0  0
   19.9870  -26.6450   39.0700 O   0  0  0  0  0  0  0  0  0  0  0  0
   21.3950  -29.5860   37.9310 C   0  0  0  0  0  0  0  0  0  0  0  0
   20.9430  -30.6050   37.0860 C   0  0  0  0  0  0  0  0  0  0  0  0
   19.9500  -31.5050   37.5000 C   0  0  0  0  0  0  0  0  0  0  0  0
   19.4870  -32.5500   36.6720 N   0  0  0  0  0  0  0  0  0  0  0  0
   20.0640  -32.5240   35.3190 C   0  0  0  0  0  0  0  0  0  0  0  0
   19.3260  -33.5380   34.4440 C   0  0  0  0  0  0  0  0  0  0  0  0
   19.3680  -34.9330   35.0650 C   0  0  0  0  0  0  0  0  0  0  0  0
   18.8580  -34.9060   36.5050 C   0  0  0  0  0  0  0  0  0  0  0  0
   19.5980  -33.8580   37.3370 C   0  0  0  0  0  0  0  0  0  0  0  0
   18.3435  -32.3110   40.3900 H   0  0  0  0  0  0  0  0  0  0  0  0
   17.3667  -31.9745   38.9205 H   0  0  0  0  0  0  0  0  0  0  0  0
   18.5541  -33.3224   38.9205 H   0  0  0  0  0  0  0  0  0  0  0  0
   19.4516  -30.2388   40.6474 H   0  0  0  0  0  0  0  0  0  0  0  0
   23.9412  -29.4247   42.9116 H   0  0  0  0  0  0  0  0  0  0  0  0
   24.9138  -27.8715   44.6037 H   0  0  0  0  0  0  0  0  0  0  0  0
   24.2559  -25.4620   44.6147 H   0  0  0  0  0  0  0  0  0  0  0  0
   21.7000  -24.0770   43.0210 H   0  0  0  0  0  0  0  0  0  0  0  0
   20.2800  -26.4710   38.1970 H   0  0  0  0  0  0  0  0  0  0  0  0
   22.1677  -28.8880   37.5765 H   0  0  0  0  0  0  0  0  0  0  0  0
   21.3741  -30.7023   36.0787 H   0  0  0  0  0  0  0  0  0  0  0  0
   19.9534  -31.5171   34.8901 H   0  0  0  0  0  0  0  0  0  0  0  0
   21.1325  -32.7810   35.3654 H   0  0  0  0  0  0  0  0  0  0  0  0
   18.2773  -33.2239   34.3365 H   0  0  0  0  0  0  0  0  0  0  0  0
   19.8201  -33.5774   33.4620 H   0  0  0  0  0  0  0  0  0  0  0  0
   18.7357  -35.6101   34.4719 H   0  0  0  0  0  0  0  0  0  0  0  0
   20.4104  -35.2842   35.0686 H   0  0  0  0  0  0  0  0  0  0  0  0
   17.7843  -34.6670   36.5004 H   0  0  0  0  0  0  0  0  0  0  0  0
   19.0348  -35.8943   36.9545 H   0  0  0  0  0  0  0  0  0  0  0  0
   19.1502  -33.8005   38.3401 H   0  0  0  0  0  0  0  0  0  0  0  0
   20.6577  -34.1384   37.4292 H   0  0  0  0  0  0  0  0  0  0  0  0
  1  2  1  0
  2  3  2  0
  3  4  1  0
  4  5  1  0
  5  6  1  0
  6  7  1  0
  7  8  2  0
  8  9  1  0
  9 10  2  0
 10 11  1  0
 11 12  1  0
 11 13  2  0
 13 14  1  0
 14 15  2  0
 14 16  1  0
 16 17  1  0
  4 18  2  0
 18 19  1  0
 19 20  2  0
 20 21  1  0
 21 22  1  0
 22 23  1  0
 23 24  1  0
 24 25  1  0
 25 26  1  0
 20  2  1  0
 26 21  1  0
 16  5  2  0
 13  7  1  0
  1 27  1  0
  1 28  1  0
  1 29  1  0
  3 30  1  0
  8 31  1  0
  9 32  1  0
 10 33  1  0
 12 34  1  0
 17 35  1  0
 18 36  1  0
 19 37  1  0
 22 38  1  0
 22 39  1  0
 23 40  1  0
 23 41  1  0
 24 42  1  0
 24 43  1  0
 25 44  1  0
 25 45  1  0
 26 46  1  0
 26 47  1  0
M  END
>  <meeko>  (5) 
{"is_sidechain": [false], "free_energy": -9.094, "intermolecular_energy": -11.247, "internal_energy": 0.147}

$$$$
cand_023_out
     RDKit          3D

 47 50  0  0  0  0  0  0  0  0999 V2000
   22.7950  -27.3250   42.4740 C   0  0  0  0  0  0  0  0  0  0  0  0
   21.5890  -27.3330   41.5740 C   0  0  0  0  0  0  0  0  0  0  0  0
   21.4100  -28.3910   40.6650 C   0  0  0  0  0  0  0  0  0  0  0  0
   20.2980  -28.4420   39.8100 C   0  0  0  0  0  0  0  0  0  0  0  0
   20.1580  -29.5560   38.8490 C   0  0  0  0  0  0  0  0  0  0  0  0
   19.4140  -30.6160   39.3550 O   0  0  0  0  0  0  0  0  0  0  0  0
   19.2030  -31.7170   38.5660 C   0  0  0  0  0  0  0  0  0  0  0  0
   18.4620  -32.7620   39.1190 C   0  0  0  0  0  0  0  0  0  0  0  0
   18.2110  -33.9110   38.3680 C   0  0  0  0  0  0  0  0  0  0  0  0
   18.6990  -34.0170   37.0640 C   0  0  0  0  0  0  0  0  0  0  0  0
   19.4390  -32.9730   36.5140 C   0  0  0  0  0  0  0  0  0  0  0  0
   19.8880  -33.1420   35.2330 O   0  0  0  0  0  0  0  0  0  0  0  0
   19.6910  -31.8220   37.2670 C   0  0  0  0  0  0  0  0  0  0  0  0
   20.4630  -30.7020   36.7270 C   0  0  0  0  0  0  0  0  0  0  0  0
   20.9210  -30.7170   35.5860 O   0  0  0  0  0  0  0  0  0  0  0  0
   20.6800  -29.5320   37.6080 C   0  0  0  0  0  0  0  0  0  0  0  0
   21.3990  -28.4740   37.0820 O   0  0  0  0  0  0  0  0  0  0  0  0
   19.3680  -27.3990   39.8700 C   0  0  0  0  0  0  0  0  0  0  0  0
   19.5350  -26.3430   40.7720 C   0  0  0  0  0  0  0  0  0  0  0  0
   20.6430  -26.2910   41.6310 C   0  0  0  0  0  0  0  0  0  0  0  0
   20.8270  -25.2440   42.5600 N   0  0  0  0  0  0  0  0  0  0  0  0
   21.1620  -23.9560   41.9320 C   0  0  0  0  0  0  0  0  0  0  0  0
   21.5710  -22.9630   43.0210 C   0  0  0  0  0  0  0  0  0  0  0  0
   20.4760  -22.8250   44.0780 C   0  0  0  0  0  0  0  0  0  0  0  0
   20.0790  -24.1910   44.6350 C   0  0  0  0  0  0  0  0  0  0  0  0
   19.7100  -25.1630   43.5140 C   0  0  0  0  0  0  0  0  0  0  0  0
   22.4686  -27.3272   43.5245 H   0  0  0  0  0  0  0  0  0  0  0  0
   23.4049  -28.2191   42.2777 H   0  0  0  0  0  0  0  0  0  0  0  0
   23.3930  -26.4229   42.2777 H   0  0  0  0  0  0  0  0  0  0  0  0
   22.1580  -29.1964   40.6231 H   0  0  0  0  0  0  0  0  0  0  0  0
   18.0761  -32.6802   40.1458 H   0  0  0  0  0  0  0  0  0  0  0  0
   17.6274  -34.7351   38.8042 H   0  0  0  0  0  0  0  0  0  0  0  0
   18.4995  -34.9228   36.4726 H   0  0  0  0  0  0  0  0  0  0  0  0
   20.0770  -34.0010   34.9120 H   0  0  0  0  0  0  0  0  0  0  0  0
   21.6610  -27.7650   37.6370 H   0  0  0  0  0  0  0  0  0  0  0  0
   18.4954  -27.4093   39.2003 H   0  0  0  0  0  0  0  0  0  0  0  0
   18.7846  -25.5395   40.8084 H   0  0  0  0  0  0  0  0  0  0  0  0
   21.9953  -24.0948   41.2275 H   0  0  0  0  0  0  0  0  0  0  0  0
   20.2885  -23.5702   41.3861 H   0  0  0  0  0  0  0  0  0  0  0  0
   22.4935  -23.3184   43.5034 H   0  0  0  0  0  0  0  0  0  0  0  0
   21.7330  -21.9799   42.5549 H   0  0  0  0  0  0  0  0  0  0  0  0
   20.8466  -22.1950   44.9000 H   0  0  0  0  0  0  0  0  0  0  0  0
   19.5923  -22.3665   43.6101 H   0  0  0  0  0  0  0  0  0  0  0  0
   20.9242  -24.6051   45.2043 H   0  0  0  0  0  0  0  0  0  0  0  0
   19.2000  -24.0592   45.2831 H   0  0  0  0  0  0  0  0  0  0  0  0
   19.5156  -26.1588   43.9390 H   0  0  0  0  0  0  0  0  0  0  0  0
   18.8065  -24.8071   42.9974 H   0  0  0  0  0  0  0  0  0  0  0  0
  1  2  1  0
  2  3  2  0
  3  4  1  0
  4  5  1  0
  5  6  1  0
  6  7  1  0
  7  8  2  0
  8  9  1  0
  9 10  2  0
 10 11  1  0
 11 12  1  0
 11 13  2  0
 13 14  1  0
 14 15  2  0
 14 16  1  0
 16 17  1  0
  4 18  2  0
 18 19  1  0
 19 20  2  0
 20 21  1  0
 21 22  1  0
 22 23  1  0
 23 24  1  0
 24 25  1  0
 25 26  1  0
 20  2  1  0
 26 21  1  0
 16  5  2  0
 13  7  1  0
  1 27  1  0
  1 28  1  0
  1 29  1  0
  3 30  1  0
  8 31  1  0
  9 32  1  0
 10 33  1  0
 12 34  1  0
 17 35  1  0
 18 36  1  0
 19 37  1  0
 22 38  1  0
 22 39  1  0
 23 40  1  0
 23 41  1  0
 24 42  1  0
 24 43  1  0
 25 44  1  0
 25 45  1  0
 26 46  1  0
 26 47  1  0
M  END
>  <meeko>  (6) 
{"is_sidechain": [false], "free_energy": -8.91, "intermolecular_energy": -10.161, "internal_energy": -0.724}

$$$$
cand_023_out
     RDKit          3D

 47 50  0  0  0  0  0  0  0  0999 V2000
   22.7050  -29.1020   40.8580 C   0  0  0  0  0  0  0  0  0  0  0  0
   21.6040  -28.8070   39.8740 C   0  0  0  0  0  0  0  0  0  0  0  0
   21.4870  -29.5890   38.7110 C   0  0  0  0  0  0  0  0  0  0  0  0
   20.4740  -29.3520   37.7690 C   0  0  0  0  0  0  0  0  0  0  0  0
   20.3990  -30.1770   36.5450 C   0  0  0  0  0  0  0  0  0  0  0  0
   20.0230  -31.4910   36.8010 O   0  0  0  0  0  0  0  0  0  0  0  0
   19.9130  -32.3670   35.7530 C   0  0  0  0  0  0  0  0  0  0  0  0
   19.5460  -33.6790   36.0580 C   0  0  0  0  0  0  0  0  0  0  0  0
   19.4140  -34.6200   35.0360 C   0  0  0  0  0  0  0  0  0  0  0  0
   19.6480  -34.2520   33.7090 C   0  0  0  0  0  0  0  0  0  0  0  0
   20.0140  -32.9430   33.4070 C   0  0  0  0  0  0  0  0  0  0  0  0
   20.2270  -32.6490   32.0880 O   0  0  0  0  0  0  0  0  0  0  0  0
   20.1460  -32.0000   34.4310 C   0  0  0  0  0  0  0  0  0  0  0  0
   20.5280  -30.6140   34.1570 C   0  0  0  0  0  0  0  0  0  0  0  0
   20.7440  -30.2110   33.0150 O   0  0  0  0  0  0  0  0  0  0  0  0
   20.6470  -29.6960   35.3130 C   0  0  0  0  0  0  0  0  0  0  0  0
   20.9960  -28.3850   35.0410 O   0  0  0  0  0  0  0  0  0  0  0  0
   19.5810  -28.3020   38.0060 C   0  0  0  0  0  0  0  0  0  0  0  0
   19.6870  -27.5200   39.1600 C   0  0  0  0  0  0  0  0  0  0  0  0
   20.6970  -27.7560   40.1070 C   0  0  0  0  0  0  0  0  0  0  0  0
   20.8160  -26.9900   41.2860 N   0  0  0  0  0  0  0  0  0  0  0  0
   21.9200  -26.0180   41.2450 C   0  0  0  0  0  0  0  0  0  0  0  0
   22.1090  -25.4200   42.6400 C   0  0  0  0  0  0  0  0  0  0  0  0
   20.8100  -24.8000   43.1530 C   0  0  0  0  0  0  0  0  0  0  0  0
   19.6610  -25.8050   43.0860 C   0  0  0  0  0  0  0  0  0  0  0  0
   19.5270  -26.4030   41.6850 C   0  0  0  0  0  0  0  0  0  0  0  0
   22.3185  -28.9984   41.8826 H   0  0  0  0  0  0  0  0  0  0  0  0
   23.0680  -30.1291   40.7051 H   0  0  0  0  0  0  0  0  0  0  0  0
   23.5329  -28.3940   40.7051 H   0  0  0  0  0  0  0  0  0  0  0  0
   22.2048  -30.4039   38.5359 H   0  0  0  0  0  0  0  0  0  0  0  0
   19.3611  -33.9706   37.1024 H   0  0  0  0  0  0  0  0  0  0  0  0
   19.1250  -35.6539   35.2760 H   0  0  0  0  0  0  0  0  0  0  0  0
   19.5434  -34.9947   32.9044 H   0  0  0  0  0  0  0  0  0  0  0  0
   19.8670  -33.2000   31.4220 H   0  0  0  0  0  0  0  0  0  0  0  0
   20.4090  -27.6890   35.2640 H   0  0  0  0  0  0  0  0  0  0  0  0
   18.7861  -28.0890   37.2760 H   0  0  0  0  0  0  0  0  0  0  0  0
   18.9669  -26.7058   39.3292 H   0  0  0  0  0  0  0  0  0  0  0  0
   22.8453  -26.5239   40.9321 H   0  0  0  0  0  0  0  0  0  0  0  0
   21.6850  -25.2187   40.5267 H   0  0  0  0  0  0  0  0  0  0  0  0
   22.4256  -26.2146   43.3317 H   0  0  0  0  0  0  0  0  0  0  0  0
   22.8735  -24.6313   42.5815 H   0  0  0  0  0  0  0  0  0  0  0  0
   20.9503  -24.4828   44.1969 H   0  0  0  0  0  0  0  0  0  0  0  0
   20.5587  -23.9369   42.5190 H   0  0  0  0  0  0  0  0  0  0  0  0
   19.8515  -26.6155   43.8049 H   0  0  0  0  0  0  0  0  0  0  0  0
   18.7258  -25.2800   43.3303 H   0  0  0  0  0  0  0  0  0  0  0  0
   18.7526  -27.1842   41.6906 H   0  0  0  0  0  0  0  0  0  0  0  0
   19.2422  -25.6154   40.9719 H   0  0  0  0  0  0  0  0  0  0  0  0
  1  2  1  0
  2  3  2  0
  3  4  1  0
  4  5  1  0
  5  6  1  0
  6  7  1  0
  7  8  2  0
  8  9  1  0
  9 10  2  0
 10 11  1  0
 11 12  1  0
 11 13  2  0
 13 14  1  0
 14 15  2  0
 14 16  1  0
 16 17  1  0
  4 18  2  0
 18 19  1  0
 19 20  2  0
 20 21  1  0
 21 22  1  0
 22 23  1  0
 23 24  1  0
 24 25  1  0
 25 26  1  0
 20  2  1  0
 26 21  1  0
 16  5  2  0
 13  7  1  0
  1 27  1  0
  1 28  1  0
  1 29  1  0
  3 30  1  0
  8 31  1  0
  9 32  1  0
 10 33  1  0
 12 34  1  0
 17 35  1  0
 18 36  1  0
 19 37  1  0
 22 38  1  0
 22 39  1  0
 23 40  1  0
 23 41  1  0
 24 42  1  0
 24 43  1  0
 25 44  1  0
 25 45  1  0
 26 46  1  0
 26 47  1  0
M  END
>  <meeko>  (7) 
{"is_sidechain": [false], "free_energy": -8.663, "intermolecular_energy": -10.276, "internal_energy": -0.318}

$$$$
cand_023_out
     RDKit          3D

 47 50  0  0  0  0  0  0  0  0999 V2000
   23.7620  -25.8360   43.5180 C   0  0  0  0  0  0  0  0  0  0  0  0
   22.3770  -25.9980   42.9500 C   0  0  0  0  0  0  0  0  0  0  0  0
   22.1810  -26.8240   41.8290 C   0  0  0  0  0  0  0  0  0  0  0  0
   20.9070  -27.0090   41.2690 C   0  0  0  0  0  0  0  0  0  0  0  0
   20.7450  -27.8630   40.0740 C   0  0  0  0  0  0  0  0  0  0  0  0
   20.4380  -29.1810   40.3900 O   0  0  0  0  0  0  0  0  0  0  0  0
   20.2570  -30.0840   39.3740 C   0  0  0  0  0  0  0  0  0  0  0  0
   19.9640  -31.3990   39.7370 C   0  0  0  0  0  0  0  0  0  0  0  0
   19.7670  -32.3670   38.7510 C   0  0  0  0  0  0  0  0  0  0  0  0
   19.8630  -32.0210   37.4010 C   0  0  0  0  0  0  0  0  0  0  0  0
   20.1570  -30.7090   37.0410 C   0  0  0  0  0  0  0  0  0  0  0  0
   20.2360  -30.4380   35.7020 O   0  0  0  0  0  0  0  0  0  0  0  0
   20.3540  -29.7390   38.0290 C   0  0  0  0  0  0  0  0  0  0  0  0
   20.6630  -28.3490   37.6930 C   0  0  0  0  0  0  0  0  0  0  0  0
   20.7580  -27.9660   36.5280 O   0  0  0  0  0  0  0  0  0  0  0  0
   20.8610  -27.4020   38.8140 C   0  0  0  0  0  0  0  0  0  0  0  0
   21.1390  -26.0870   38.4850 O   0  0  0  0  0  0  0  0  0  0  0  0
   19.8260  -26.3350   41.8460 C   0  0  0  0  0  0  0  0  0  0  0  0
   20.0090  -25.5130   42.9630 C   0  0  0  0  0  0  0  0  0  0  0  0
   21.2810  -25.3290   43.5280 C   0  0  0  0  0  0  0  0  0  0  0  0
   21.4900  -24.5170   44.6630 N   0  0  0  0  0  0  0  0  0  0  0  0
   20.9360  -23.1610   44.5230 C   0  0  0  0  0  0  0  0  0  0  0  0
   21.4200  -22.3030   45.6930 C   0  0  0  0  0  0  0  0  0  0  0  0
   21.0560  -22.9420   47.0320 C   0  0  0  0  0  0  0  0  0  0  0  0
   21.5570  -24.3840   47.1030 C   0  0  0  0  0  0  0  0  0  0  0  0
   21.0790  -25.1980   45.9010 C   0  0  0  0  0  0  0  0  0  0  0  0
   23.7107  -25.8420   44.6168 H   0  0  0  0  0  0  0  0  0  0  0  0
   24.3979  -26.6659   43.1761 H   0  0  0  0  0  0  0  0  0  0  0  0
   24.1892  -24.8818   43.1761 H   0  0  0  0  0  0  0  0  0  0  0  0
   23.0450  -27.3365   41.3809 H   0  0  0  0  0  0  0  0  0  0  0  0
   19.8883  -31.6727   40.7997 H   0  0  0  0  0  0  0  0  0  0  0  0
   19.5359  -33.4036   39.0373 H   0  0  0  0  0  0  0  0  0  0  0  0
   19.7066  -32.7838   36.6241 H   0  0  0  0  0  0  0  0  0  0  0  0
   20.7500  -30.9860   35.1430 H   0  0  0  0  0  0  0  0  0  0  0  0
   21.2840  -25.4560   39.1620 H   0  0  0  0  0  0  0  0  0  0  0  0
   18.8202  -26.4526   41.4165 H   0  0  0  0  0  0  0  0  0  0  0  0
   19.1415  -25.0021   43.4062 H   0  0  0  0  0  0  0  0  0  0  0  0
   21.2774  -22.7190   43.5753 H   0  0  0  0  0  0  0  0  0  0  0  0
   19.8369  -23.2062   44.5245 H   0  0  0  0  0  0  0  0  0  0  0  0
   22.5130  -22.1957   45.6316 H   0  0  0  0  0  0  0  0  0  0  0  0
   20.9305  -21.3199   45.6308 H   0  0  0  0  0  0  0  0  0  0  0  0
   21.5155  -22.3608   47.8450 H   0  0  0  0  0  0  0  0  0  0  0  0
   19.9607  -22.9454   47.1332 H   0  0  0  0  0  0  0  0  0  0  0  0
   22.6569  -24.3808   47.1190 H   0  0  0  0  0  0  0  0  0  0  0  0
   21.1557  -24.8463   48.0170 H   0  0  0  0  0  0  0  0  0  0  0  0
   21.5267  -26.2022   45.9349 H   0  0  0  0  0  0  0  0  0  0  0  0
   19.9830  -25.2885   45.9274 H   0  0  0  0  0  0  0  0  0  0  0  0
  1  2  1  0
  2  3  2  0
  3  4  1  0
  4  5  1  0
  5  6  1  0
  6  7  1  0
  7  8  2  0
  8  9  1  0
  9 10  2  0
 10 11  1  0
 11 12  1  0
 11 13  2  0
 13 14  1  0
 14 15  2  0
 14 16  1  0
 16 17  1  0
  4 18  2  0
 18 19  1  0
 19 20  2  0
 20 21  1  0
 21 22  1  0
 22 23  1  0
 23 24  1  0
 24 25  1  0
 25 26  1  0
 20  2  1  0
 26 21  1  0
 16  5  2  0
 13  7  1  0
  1 27  1  0
  1 28  1  0
  1 29  1  0
  3 30  1  0
  8 31  1  0
  9 32  1  0
 10 33  1  0
 12 34  1  0
 17 35  1  0
 18 36  1  0
 19 37  1  0
 22 38  1  0
 22 39  1  0
 23 40  1  0
 23 41  1  0
 24 42  1  0
 24 43  1  0
 25 44  1  0
 25 45  1  0
 26 46  1  0
 26 47  1  0
M  END
>  <meeko>  (8) 
{"is_sidechain": [false], "free_energy": -8.36, "intermolecular_energy": -9.538, "internal_energy": -0.701}

$$$$
cand_023_out
     RDKit          3D

 47 50  0  0  0  0  0  0  0  0999 V2000
   18.7720  -23.6340   45.1940 C   0  0  0  0  0  0  0  0  0  0  0  0
   20.0140  -24.3820   44.7880 C   0  0  0  0  0  0  0  0  0  0  0  0
   20.0950  -24.9420   43.5000 C   0  0  0  0  0  0  0  0  0  0  0  0
   21.2340  -25.6440   43.0780 C   0  0  0  0  0  0  0  0  0  0  0  0
   21.2720  -26.2420   41.7270 C   0  0  0  0  0  0  0  0  0  0  0  0
   21.8250  -27.5180   41.7160 O   0  0  0  0  0  0  0  0  0  0  0  0
   21.9190  -28.1910   40.5260 C   0  0  0  0  0  0  0  0  0  0  0  0
   22.4930  -29.4630   40.5600 C   0  0  0  0  0  0  0  0  0  0  0  0
   22.6170  -30.2030   39.3830 C   0  0  0  0  0  0  0  0  0  0  0  0
   22.1680  -29.6720   38.1710 C   0  0  0  0  0  0  0  0  0  0  0  0
   21.5960  -28.4030   38.1390 C   0  0  0  0  0  0  0  0  0  0  0  0
   21.1780  -27.9440   36.9200 O   0  0  0  0  0  0  0  0  0  0  0  0
   21.4720  -27.6620   39.3180 C   0  0  0  0  0  0  0  0  0  0  0  0
   20.8770  -26.3250   39.3300 C   0  0  0  0  0  0  0  0  0  0  0  0
   20.4530  -25.7930   38.3050 O   0  0  0  0  0  0  0  0  0  0  0  0
   20.7980  -25.6210   40.6300 C   0  0  0  0  0  0  0  0  0  0  0  0
   20.2210  -24.3640   40.6300 O   0  0  0  0  0  0  0  0  0  0  0  0
   22.2950  -25.7890   43.9780 C   0  0  0  0  0  0  0  0  0  0  0  0
   22.2260  -25.2330   45.2600 C   0  0  0  0  0  0  0  0  0  0  0  0
   21.0900  -24.5280   45.6850 C   0  0  0  0  0  0  0  0  0  0  0  0
   21.0010  -23.9460   46.9670 N   0  0  0  0  0  0  0  0  0  0  0  0
   20.9180  -24.9330   48.0550 C   0  0  0  0  0  0  0  0  0  0  0  0
   20.5880  -24.2090   49.3610 C   0  0  0  0  0  0  0  0  0  0  0  0
   21.6090  -23.1100   49.6530 C   0  0  0  0  0  0  0  0  0  0  0  0
   21.7460  -22.1610   48.4630 C   0  0  0  0  0  0  0  0  0  0  0  0
   22.0430  -22.9270   47.1730 C   0  0  0  0  0  0  0  0  0  0  0  0
   18.7091  -23.5961   46.2915 H   0  0  0  0  0  0  0  0  0  0  0  0
   18.8131  -22.6103   44.7935 H   0  0  0  0  0  0  0  0  0  0  0  0
   17.8864  -24.1491   44.7935 H   0  0  0  0  0  0  0  0  0  0  0  0
   19.2470  -24.8270   42.8089 H   0  0  0  0  0  0  0  0  0  0  0  0
   22.8473  -29.8818   41.5135 H   0  0  0  0  0  0  0  0  0  0  0  0
   23.0688  -31.2056   39.4096 H   0  0  0  0  0  0  0  0  0  0  0  0
   22.2663  -30.2556   37.2437 H   0  0  0  0  0  0  0  0  0  0  0  0
   21.6220  -28.2130   36.1410 H   0  0  0  0  0  0  0  0  0  0  0  0
   19.5440  -24.1600   40.0160 H   0  0  0  0  0  0  0  0  0  0  0  0
   23.1935  -26.3463   43.6744 H   0  0  0  0  0  0  0  0  0  0  0  0
   23.0773  -25.3507   45.9466 H   0  0  0  0  0  0  0  0  0  0  0  0
   20.1283  -25.6648   47.8294 H   0  0  0  0  0  0  0  0  0  0  0  0
   21.8795  -25.4580   48.1542 H   0  0  0  0  0  0  0  0  0  0  0  0
   19.5880  -23.7580   49.2792 H   0  0  0  0  0  0  0  0  0  0  0  0
   20.6161  -24.9397   50.1827 H   0  0  0  0  0  0  0  0  0  0  0  0
   21.2804  -22.5382   50.5334 H   0  0  0  0  0  0  0  0  0  0  0  0
   22.5857  -23.5795   49.8416 H   0  0  0  0  0  0  0  0  0  0  0  0
   20.8063  -21.6026   48.3399 H   0  0  0  0  0  0  0  0  0  0  0  0
   22.5831  -21.4752   48.6603 H   0  0  0  0  0  0  0  0  0  0  0  0
   22.0485  -22.2288   46.3230 H   0  0  0  0  0  0  0  0  0  0  0  0
   23.0268  -23.4132   47.2489 H   0  0  0  0  0  0  0  0  0  0  0  0
  1  2  1  0
  2  3  2  0
  3  4  1  0
  4  5  1  0
  5  6  1  0
  6  7  1  0
  7  8  2  0
  8  9  1  0
  9 10  2  0
 10 11  1  0
 11 12  1  0
 11 13  2  0
 13 14  1  0
 14 15  2  0
 14 16  1  0
 16 17  1  0
  4 18  2  0
 18 19  1  0
 19 20  2  0
 20 21  1  0
 21 22  1  0
 22 23  1  0
 23 24  1  0
 24 25  1  0
 25 26  1  0
 20  2  1  0
 26 21  1  0
 16  5  2  0
 13  7  1  0
  1 27  1  0
  1 28  1  0
  1 29  1  0
  3 30  1  0
  8 31  1  0
  9 32  1  0
 10 33  1  0
 12 34  1  0
 17 35  1  0
 18 36  1  0
 19 37  1  0
 22 38  1  0
 22 39  1  0
 23 40  1  0
 23 41  1  0
 24 42  1  0
 24 43  1  0
 25 44  1  0
 25 45  1  0
 26 46  1  0
 26 47  1  0
M  END
>  <meeko>  (9) 
{"is_sidechain": [false], "free_energy": -8.35, "intermolecular_energy": -9.902, "internal_energy": -0.324}

$$$$
