cand_055_out
     RDKit          3D

 41 43  0  0  0  0  0  0  0  0999 V2000
   22.4760  -25.6570   45.1210 C   0  0  0  0  0  0  0  0  0  0  0  0
   23.2160  -26.9700   44.9230 C   0  0  0  0  0  0  0  0  0  0  0  0
   24.0490  -26.9530   43.6400 C   0  0  0  0  0  0  0  0  0  0  0  0
   23.4070  -27.7720   42.5420 C   0  0  0  0  0  0  0  0  0  0  0  0
   22.3660  -27.1930   41.7980 C   0  0  0  0  0  0  0  0  0  0  0  0
   21.7280  -27.9030   40.7780 C   0  0  0  0  0  0  0  0  0  0  0  0
   22.1160  -29.2090   40.4690 C   0  0  0  0  0  0  0  0  0  0  0  0
   21.4420  -29.9920   39.4100 C   0  0  0  0  0  0  0  0  0  0  0  0
   20.6470  -31.0140   39.9180 O   0  0  0  0  0  0  0  0  0  0  0  0
   19.9630  -31.8180   39.0440 C   0  0  0  0  0  0  0  0  0  0  0  0
   19.1660  -32.8220   39.5970 C   0  0  0  0  0  0  0  0  0  0  0  0
   18.4440  -33.6780   38.7620 C   0  0  0  0  0  0  0  0  0  0  0  0
   18.5200  -33.5320   37.3750 C   0  0  0  0  0  0  0  0  0  0  0  0
   19.3160  -32.5290   36.8260 C   0  0  0  0  0  0  0  0  0  0  0  0
   19.3450  -32.4420   35.4610 O   0  0  0  0  0  0  0  0  0  0  0  0
   20.0370  -31.6720   37.6620 C   0  0  0  0  0  0  0  0  0  0  0  0
   20.8850  -30.6070   37.1250 C   0  0  0  0  0  0  0  0  0  0  0  0
   21.0080  -30.4190   35.9170 O   0  0  0  0  0  0  0  0  0  0  0  0
   21.6030  -29.7480   38.0970 C   0  0  0  0  0  0  0  0  0  0  0  0
   22.4110  -28.7530   37.5780 O   0  0  0  0  0  0  0  0  0  0  0  0
   23.1460  -29.7940   41.2210 C   0  0  0  0  0  0  0  0  0  0  0  0
   23.7950  -29.0960   42.2580 C   0  0  0  0  0  0  0  0  0  0  0  0
   24.9020  -29.7800   43.0100 C   0  0  0  0  0  0  0  0  0  0  0  0
   22.3638  -25.4580   46.1970 H   0  0  0  0  0  0  0  0  0  0  0  0
   23.0468  -24.8405   44.6546 H   0  0  0  0  0  0  0  0  0  0  0  0
   21.4819  -25.7224   44.6546 H   0  0  0  0  0  0  0  0  0  0  0  0
   23.8836  -27.1375   45.7810 H   0  0  0  0  0  0  0  0  0  0  0  0
   22.4733  -27.7774   44.8430 H   0  0  0  0  0  0  0  0  0  0  0  0
   24.1508  -25.9133   43.2954 H   0  0  0  0  0  0  0  0  0  0  0  0
   25.0317  -27.3933   43.8647 H   0  0  0  0  0  0  0  0  0  0  0  0
   22.0480  -26.1641   42.0220 H   0  0  0  0  0  0  0  0  0  0  0  0
   20.9121  -27.4291   40.2126 H   0  0  0  0  0  0  0  0  0  0  0  0
   19.1066  -32.9389   40.6892 H   0  0  0  0  0  0  0  0  0  0  0  0
   17.8147  -34.4682   39.1974 H   0  0  0  0  0  0  0  0  0  0  0  0
   17.9527  -34.2073   36.7177 H   0  0  0  0  0  0  0  0  0  0  0  0
   20.1530  -32.5610   35.0020 H   0  0  0  0  0  0  0  0  0  0  0  0
   22.8620  -28.1680   38.1540 H   0  0  0  0  0  0  0  0  0  0  0  0
   23.4549  -30.8252   40.9947 H   0  0  0  0  0  0  0  0  0  0  0  0
   24.7306  -29.6741   44.0914 H   0  0  0  0  0  0  0  0  0  0  0  0
   24.9207  -30.8473   42.7445 H   0  0  0  0  0  0  0  0  0  0  0  0
   25.8649  -29.3192   42.7445 H   0  0  0  0  0  0  0  0  0  0  0  0
  1  2  1  0
  2  3  1  0
  3  4  1  0
  4  5  2  0
  5  6  1  0
  6  7  2  0
  7  8  1  0
  8  9  1  0
  9 10  1  0
 10 11  2  0
 11 12  1  0
 12 13  2  0
 13 14  1  0
 14 15  1  0
 14 16  2  0
 16 17  1  0
 17 18  2  0
 17 19  1  0
 19 20  1  0
  7 21  1  0
 21 22  2  0
 22 23  1  0
 22  4  1  0
 19  8  2  0
 16 10  1  0
  1 24  1  0
  1 25  1  0
  1 26  1  0
  2 27  1  0
  2 28  1  0
  3 29  1  0
  3 30  1  0
  5 31  1  0
  6 32  1  0
 11 33  1  0
 12 34  1  0
 13 35  1  0
 15 36  1  0
 20 37  1  0
 21 38  1  0
 23 39  1  0
 23 40  1  0
 23 41  1  0
M  END
>  <meeko>  (1) 
{"is_sidechain": [false], "free_energy": -9.34, "intermolecular_energy": -11.524, "internal_energy": -0.55}

$$$$
cand_055_out
     RDKit          3D

 41 43  0  0  0  0  0  0  0  0999 V2000
   24.2030  -26.1450   43.7760 C   0  0  0  0  0  0  0  0  0  0  0  0
   23.4340  -27.2560   43.0800 C   0  0  0  0  0  0  0  0  0  0  0  0
   22.3350  -26.6940   42.1770 C   0  0  0  0  0  0  0  0  0  0  0  0
   21.7910  -27.7430   41.2330 C   0  0  0  0  0  0  0  0  0  0  0  0
   22.6530  -28.7660   40.8050 C   0  0  0  0  0  0  0  0  0  0  0  0
   22.2120  -29.7580   39.9250 C   0  0  0  0  0  0  0  0  0  0  0  0
   20.8960  -29.7590   39.4540 C   0  0  0  0  0  0  0  0  0  0  0  0
   20.4100  -30.7830   38.5040 C   0  0  0  0  0  0  0  0  0  0  0  0
   19.9850  -31.9470   39.1350 O   0  0  0  0  0  0  0  0  0  0  0  0
   19.5080  -32.9800   38.3710 C   0  0  0  0  0  0  0  0  0  0  0  0
   19.0780  -34.1230   39.0470 C   0  0  0  0  0  0  0  0  0  0  0  0
   18.5830  -35.2130   38.3290 C   0  0  0  0  0  0  0  0  0  0  0  0
   18.5190  -35.1610   36.9340 C   0  0  0  0  0  0  0  0  0  0  0  0
   18.9480  -34.0200   36.2630 C   0  0  0  0  0  0  0  0  0  0  0  0
   18.8590  -34.0360   34.8970 O   0  0  0  0  0  0  0  0  0  0  0  0
   19.4430  -32.9290   36.9830 C   0  0  0  0  0  0  0  0  0  0  0  0
   19.9050  -31.7110   36.3150 C   0  0  0  0  0  0  0  0  0  0  0  0
   19.8860  -31.5920   35.0920 O   0  0  0  0  0  0  0  0  0  0  0  0
   20.4040  -30.6090   37.1700 C   0  0  0  0  0  0  0  0  0  0  0  0
   20.8500  -29.4680   36.5270 O   0  0  0  0  0  0  0  0  0  0  0  0
   20.0390  -28.7290   39.8700 C   0  0  0  0  0  0  0  0  0  0  0  0
   20.4690  -27.7170   40.7490 C   0  0  0  0  0  0  0  0  0  0  0  0
   19.4900  -26.6540   41.1650 C   0  0  0  0  0  0  0  0  0  0  0  0
   24.1182  -26.2675   44.8659 H   0  0  0  0  0  0  0  0  0  0  0  0
   25.2622  -26.1929   43.4829 H   0  0  0  0  0  0  0  0  0  0  0  0
   23.7852  -25.1706   43.4829 H   0  0  0  0  0  0  0  0  0  0  0  0
   24.1326  -27.8459   42.4685 H   0  0  0  0  0  0  0  0  0  0  0  0
   22.9617  -27.8844   43.8495 H   0  0  0  0  0  0  0  0  0  0  0  0
   21.5134  -26.3212   42.8063 H   0  0  0  0  0  0  0  0  0  0  0  0
   22.7702  -25.8841   41.5732 H   0  0  0  0  0  0  0  0  0  0  0  0
   23.6912  -28.7867   41.1681 H   0  0  0  0  0  0  0  0  0  0  0  0
   22.9074  -30.5458   39.5998 H   0  0  0  0  0  0  0  0  0  0  0  0
   19.1292  -34.1648   40.1450 H   0  0  0  0  0  0  0  0  0  0  0  0
   18.2431  -36.1134   38.8616 H   0  0  0  0  0  0  0  0  0  0  0  0
   18.1303  -36.0202   36.3676 H   0  0  0  0  0  0  0  0  0  0  0  0
   18.2810  -34.6390   34.4730 H   0  0  0  0  0  0  0  0  0  0  0  0
   21.7670  -29.2810   36.4860 H   0  0  0  0  0  0  0  0  0  0  0  0
   19.0034  -28.7118   39.4994 H   0  0  0  0  0  0  0  0  0  0  0  0
   19.4457  -26.6058   42.2631 H   0  0  0  0  0  0  0  0  0  0  0  0
   19.8148  -25.6809   40.7681 H   0  0  0  0  0  0  0  0  0  0  0  0
   18.4935  -26.8977   40.7681 H   0  0  0  0  0  0  0  0  0  0  0  0
  1  2  1  0
  2  3  1  0
  3  4  1  0
  4  5  2  0
  5  6  1  0
  6  7  2  0
  7  8  1  0
  8  9  1  0
  9 10  1  0
 10 11  2  0
 11 12  1  0
 12 13  2  0
 13 14  1  0
 14 15  1  0
 14 16  2  0
 16 17  1  0
 17 18  2  0
 17 19  1  0
 19 20  1  0
  7 21  1  0
 21 22  2  0
 22 23  1  0
 22  4  1  0
 19  8  2  0
 16 10  1  0
  1 24  1  0
  1 25  1  0
  1 26  1  0
  2 27  1  0
  2 28  1  0
  3 29  1  0
  3 30  1  0
  5 31  1  0
  6 32  1  0
 11 33  1  0
 12 34  1  0
 13 35  1  0
 15 36  1  0
 20 37  1  0
 21 38  1  0
 23 39  1  0
 23 40  1  0
 23 41  1  0
M  END
>  <meeko>  (2) 
{"is_sidechain": [false], "free_energy": -9.298, "intermolecular_energy": -11.484, "internal_energy": -0.537}

$$$$
cand_055_out
     RDKit          3D

 41 43  0  0  0  0  0  0  0  0999 V2000
   23.3860  -26.7860   44.5680 C   0  0  0  0  0  0  0  0  0  0  0  0
   22.2270  -27.1690   43.6620 C   0  0  0  0  0  0  0  0  0  0  0  0
   22.5000  -26.7750   42.2100 C   0  0  0  0  0  0  0  0  0  0  0  0
   22.0180  -27.8310   41.2400 C   0  0  0  0  0  0  0  0  0  0  0  0
   20.8660  -27.5650   40.4820 C   0  0  0  0  0  0  0  0  0  0  0  0
   20.3670  -28.5050   39.5770 C   0  0  0  0  0  0  0  0  0  0  0  0
   21.0080  -29.7340   39.4000 C   0  0  0  0  0  0  0  0  0  0  0  0
   20.4870  -30.7570   38.4670 C   0  0  0  0  0  0  0  0  0  0  0  0
   20.0570  -31.9100   39.1140 O   0  0  0  0  0  0  0  0  0  0  0  0
   19.5490  -32.9400   38.3660 C   0  0  0  0  0  0  0  0  0  0  0  0
   19.1150  -34.0720   39.0580 C   0  0  0  0  0  0  0  0  0  0  0  0
   18.5900  -35.1590   38.3560 C   0  0  0  0  0  0  0  0  0  0  0  0
   18.4990  -35.1150   36.9630 C   0  0  0  0  0  0  0  0  0  0  0  0
   18.9320  -33.9840   36.2760 C   0  0  0  0  0  0  0  0  0  0  0  0
   18.8160  -34.0080   34.9130 O   0  0  0  0  0  0  0  0  0  0  0  0
   19.4570  -32.8970   36.9790 C   0  0  0  0  0  0  0  0  0  0  0  0
   19.9240  -31.6900   36.2940 C   0  0  0  0  0  0  0  0  0  0  0  0
   19.8830  -31.5780   35.0710 O   0  0  0  0  0  0  0  0  0  0  0  0
   20.4580  -30.5900   37.1320 C   0  0  0  0  0  0  0  0  0  0  0  0
   20.9080  -29.4600   36.4730 O   0  0  0  0  0  0  0  0  0  0  0  0
   22.1500  -30.0070   40.1680 C   0  0  0  0  0  0  0  0  0  0  0  0
   22.6630  -29.0740   41.0900 C   0  0  0  0  0  0  0  0  0  0  0  0
   23.9020  -29.4270   41.8660 C   0  0  0  0  0  0  0  0  0  0  0  0
   23.0787  -26.8876   45.6193 H   0  0  0  0  0  0  0  0  0  0  0  0
   24.2408  -27.4494   44.3702 H   0  0  0  0  0  0  0  0  0  0  0  0
   23.6772  -25.7439   44.3702 H   0  0  0  0  0  0  0  0  0  0  0  0
   22.0757  -28.2572   43.7151 H   0  0  0  0  0  0  0  0  0  0  0  0
   21.3291  -26.6329   44.0032 H   0  0  0  0  0  0  0  0  0  0  0  0
   21.9804  -25.8298   41.9941 H   0  0  0  0  0  0  0  0  0  0  0  0
   23.5874  -26.6668   42.0843 H   0  0  0  0  0  0  0  0  0  0  0  0
   20.3487  -26.6018   40.6027 H   0  0  0  0  0  0  0  0  0  0  0  0
   19.4604  -28.2754   38.9979 H   0  0  0  0  0  0  0  0  0  0  0  0
   19.1865  -34.1077   40.1551 H   0  0  0  0  0  0  0  0  0  0  0  0
   18.2476  -36.0511   38.9009 H   0  0  0  0  0  0  0  0  0  0  0  0
   18.0863  -35.9717   36.4101 H   0  0  0  0  0  0  0  0  0  0  0  0
   19.4950  -34.3870   34.3910 H   0  0  0  0  0  0  0  0  0  0  0  0
   21.4700  -28.8550   36.9140 H   0  0  0  0  0  0  0  0  0  0  0  0
   22.6580  -30.9751   40.0469 H   0  0  0  0  0  0  0  0  0  0  0  0
   23.6894  -29.3664   42.9436 H   0  0  0  0  0  0  0  0  0  0  0  0
   24.2153  -30.4501   41.6110 H   0  0  0  0  0  0  0  0  0  0  0  0
   24.7075  -28.7226   41.6110 H   0  0  0  0  0  0  0  0  0  0  0  0
  1  2  1  0
  2  3  1  0
  3  4  1  0
  4  5  2  0
  5  6  1  0
  6  7  2  0
  7  8  1  0
  8  9  1  0
  9 10  1  0
 10 11  2  0
 11 12  1  0
 12 13  2  0
 13 14  1  0
 14 15  1  0
 14 16  2  0
 16 17  1  0
 17 18  2  0
 17 19  1  0
 19 20  1  0
  7 21  1  0
 21 22  2  0
 22 23  1  0
 22  4  1  0
 19  8  2  0
 16 10  1  0
  1 24  1  0
  1 25  1  0
  1 26  1  0
  2 27  1  0
  2 28  1  0
  3 29  1  0
  3 30  1  0
  5 31  1  0
  6 32  1  0
 11 33  1  0
 12 34  1  0
 13 35  1  0
 15 36  1  0
 20 37  1  0
 21 38  1  0
 23 39  1  0
 23 40  1  0
 23 41  1  0
M  END
>  <meeko>  (3) 
{"is_sidechain": [false], "free_energy": -8.972, "intermolecular_energy": -11.271, "internal_energy": -0.349}

$$$$
cand_055_out
     RDKit          3D

 41 43  0  0  0  0  0  0  0  0999 V2000
   24.1550  -26.4290   43.7950 C   0  0  0  0  0  0  0  0  0  0  0  0
   23.3500  -27.5130   43.0980 C   0  0  0  0  0  0  0  0  0  0  0  0
   22.3410  -26.9140   42.1150 C   0  0  0  0  0  0  0  0  0  0  0  0
   21.8100  -27.9520   41.1520 C   0  0  0  0  0  0  0  0  0  0  0  0
   22.6740  -28.9780   40.7330 C   0  0  0  0  0  0  0  0  0  0  0  0
   22.2440  -29.9600   39.8370 C   0  0  0  0  0  0  0  0  0  0  0  0
   20.9390  -29.9480   39.3390 C   0  0  0  0  0  0  0  0  0  0  0  0
   20.4650  -30.9610   38.3710 C   0  0  0  0  0  0  0  0  0  0  0  0
   20.7970  -30.6500   37.0570 O   0  0  0  0  0  0  0  0  0  0  0  0
   20.4180  -31.5060   36.0560 C   0  0  0  0  0  0  0  0  0  0  0  0
   20.7840  -31.1620   34.7540 C   0  0  0  0  0  0  0  0  0  0  0  0
   20.4280  -31.9900   33.6880 C   0  0  0  0  0  0  0  0  0  0  0  0
   19.7050  -33.1620   33.9230 C   0  0  0  0  0  0  0  0  0  0  0  0
   19.3420  -33.5030   35.2230 C   0  0  0  0  0  0  0  0  0  0  0  0
   18.6340  -34.6630   35.3810 O   0  0  0  0  0  0  0  0  0  0  0  0
   19.6990  -32.6740   36.2890 C   0  0  0  0  0  0  0  0  0  0  0  0
   19.3360  -32.9970   37.6710 C   0  0  0  0  0  0  0  0  0  0  0  0
   18.6950  -34.0060   37.9560 O   0  0  0  0  0  0  0  0  0  0  0  0
   19.7690  -32.0560   38.7300 C   0  0  0  0  0  0  0  0  0  0  0  0
   19.4090  -32.3640   40.0290 O   0  0  0  0  0  0  0  0  0  0  0  0
   20.0800  -28.9150   39.7450 C   0  0  0  0  0  0  0  0  0  0  0  0
   20.4980  -27.9130   40.6410 C   0  0  0  0  0  0  0  0  0  0  0  0
   19.5180  -26.8470   41.0460 C   0  0  0  0  0  0  0  0  0  0  0  0
   24.0656  -26.5493   44.8847 H   0  0  0  0  0  0  0  0  0  0  0  0
   25.2121  -26.5119   43.5024 H   0  0  0  0  0  0  0  0  0  0  0  0
   23.7700  -25.4410   43.5024 H   0  0  0  0  0  0  0  0  0  0  0  0
   24.0379  -28.1719   42.5478 H   0  0  0  0  0  0  0  0  0  0  0  0
   22.7958  -28.0781   43.8619 H   0  0  0  0  0  0  0  0  0  0  0  0
   21.4989  -26.4913   42.6827 H   0  0  0  0  0  0  0  0  0  0  0  0
   22.8541  -26.1363   41.5303 H   0  0  0  0  0  0  0  0  0  0  0  0
   23.7046  -29.0085   41.1163 H   0  0  0  0  0  0  0  0  0  0  0  0
   22.9402  -30.7506   39.5205 H   0  0  0  0  0  0  0  0  0  0  0  0
   21.3527  -30.2390   34.5678 H   0  0  0  0  0  0  0  0  0  0  0  0
   20.7171  -31.7193   32.6618 H   0  0  0  0  0  0  0  0  0  0  0  0
   19.4232  -33.8138   33.0829 H   0  0  0  0  0  0  0  0  0  0  0  0
   17.9420  -34.8750   34.7860 H   0  0  0  0  0  0  0  0  0  0  0  0
   19.3580  -31.6870   40.6740 H   0  0  0  0  0  0  0  0  0  0  0  0
   19.0527  -28.8876   39.3526 H   0  0  0  0  0  0  0  0  0  0  0  0
   19.4681  -26.7927   42.1435 H   0  0  0  0  0  0  0  0  0  0  0  0
   19.8457  -25.8764   40.6454 H   0  0  0  0  0  0  0  0  0  0  0  0
   18.5233  -27.0921   40.6454 H   0  0  0  0  0  0  0  0  0  0  0  0
  1  2  1  0
  2  3  1  0
  3  4  1  0
  4  5  2  0
  5  6  1  0
  6  7  2  0
  7  8  1  0
  8  9  1  0
  9 10  1  0
 10 11  2  0
 11 12  1  0
 12 13  2  0
 13 14  1  0
 14 15  1  0
 14 16  2  0
 16 17  1  0
 17 18  2  0
 17 19  1  0
 19 20  1  0
  7 21  1  0
 21 22  2  0
 22 23  1  0
 22  4  1  0
 19  8  2  0
 16 10  1  0
  1 24  1  0
  1 25  1  0
  1 26  1  0
  2 27  1  0
  2 28  1  0
  3 29  1  0
  3 30  1  0
  5 31  1  0
  6 32  1  0
 11 33  1  0
 12 34  1  0
 13 35  1  0
 15 36  1  0
 20 37  1  0
 21 38  1  0
 23 39  1  0
 23 40  1  0
 23 41  1  0
M  END
>  <meeko>  (4) 
{"is_sidechain": [false], "free_energy": -8.664, "intermolecular_energy": -10.696, "internal_energy": -0.544}

$$$$
cand_055_out
     RDKit          3D

 41 43  0  0  0  0  0  0  0  0999 V2000
   20.0870  -33.2040   34.0750 C   0  0  0  0  0  0  0  0  0  0  0  0
   20.0710  -31.9940   34.9960 C   0  0  0  0  0  0  0  0  0  0  0  0
   19.6870  -32.3860   36.4240 C   0  0  0  0  0  0  0  0  0  0  0  0
   20.1240  -31.3440   37.4290 C   0  0  0  0  0  0  0  0  0  0  0  0
   20.7670  -30.1880   36.9560 C   0  0  0  0  0  0  0  0  0  0  0  0
   21.2020  -29.1950   37.8360 C   0  0  0  0  0  0  0  0  0  0  0  0
   21.0020  -29.3250   39.2130 C   0  0  0  0  0  0  0  0  0  0  0  0
   21.4740  -28.2990   40.1690 C   0  0  0  0  0  0  0  0  0  0  0  0
   22.3670  -28.8050   41.1060 O   0  0  0  0  0  0  0  0  0  0  0  0
   22.8840  -27.9600   42.0540 C   0  0  0  0  0  0  0  0  0  0  0  0
   23.7880  -28.5070   42.9660 C   0  0  0  0  0  0  0  0  0  0  0  0
   24.3510  -27.7010   43.9580 C   0  0  0  0  0  0  0  0  0  0  0  0
   24.0090  -26.3500   44.0390 C   0  0  0  0  0  0  0  0  0  0  0  0
   23.1070  -25.8070   43.1280 C   0  0  0  0  0  0  0  0  0  0  0  0
   22.8150  -24.4770   43.2650 O   0  0  0  0  0  0  0  0  0  0  0  0
   22.5450  -26.6130   42.1350 C   0  0  0  0  0  0  0  0  0  0  0  0
   21.5930  -26.0820   41.1580 C   0  0  0  0  0  0  0  0  0  0  0  0
   21.2380  -24.9060   41.1690 O   0  0  0  0  0  0  0  0  0  0  0  0
   21.0600  -27.0190   40.1410 C   0  0  0  0  0  0  0  0  0  0  0  0
   20.1520  -26.5080   39.2310 O   0  0  0  0  0  0  0  0  0  0  0  0
   20.3730  -30.4850   39.6880 C   0  0  0  0  0  0  0  0  0  0  0  0
   19.9350  -31.5000   38.8160 C   0  0  0  0  0  0  0  0  0  0  0  0
   19.2520  -32.7090   39.3950 C   0  0  0  0  0  0  0  0  0  0  0  0
   20.0992  -34.1238   34.6782 H   0  0  0  0  0  0  0  0  0  0  0  0
   19.1886  -33.1936   33.4403 H   0  0  0  0  0  0  0  0  0  0  0  0
   20.9848  -33.1699   33.4403 H   0  0  0  0  0  0  0  0  0  0  0  0
   21.0723  -31.5387   35.0066 H   0  0  0  0  0  0  0  0  0  0  0  0
   19.3228  -31.2812   34.6190 H   0  0  0  0  0  0  0  0  0  0  0  0
   18.5943  -32.4991   36.4806 H   0  0  0  0  0  0  0  0  0  0  0  0
   20.1953  -33.3306   36.6678 H   0  0  0  0  0  0  0  0  0  0  0  0
   20.9304  -30.0631   35.8754 H   0  0  0  0  0  0  0  0  0  0  0  0
   21.7073  -28.3012   37.4413 H   0  0  0  0  0  0  0  0  0  0  0  0
   24.0568  -29.5718   42.9035 H   0  0  0  0  0  0  0  0  0  0  0  0
   25.0646  -28.1312   44.6762 H   0  0  0  0  0  0  0  0  0  0  0  0
   24.4514  -25.7156   44.8212 H   0  0  0  0  0  0  0  0  0  0  0  0
   23.2710  -23.9610   43.9000 H   0  0  0  0  0  0  0  0  0  0  0  0
   20.3470  -26.5260   38.3150 H   0  0  0  0  0  0  0  0  0  0  0  0
   20.2177  -30.6050   40.7704 H   0  0  0  0  0  0  0  0  0  0  0  0
   19.2819  -32.6561   40.4933 H   0  0  0  0  0  0  0  0  0  0  0  0
   18.2054  -32.7356   39.0575 H   0  0  0  0  0  0  0  0  0  0  0  0
   19.7694  -33.6192   39.0575 H   0  0  0  0  0  0  0  0  0  0  0  0
  1  2  1  0
  2  3  1  0
  3  4  1  0
  4  5  2  0
  5  6  1  0
  6  7  2  0
  7  8  1  0
  8  9  1  0
  9 10  1  0
 10 11  2  0
 11 12  1  0
 12 13  2  0
 13 14  1  0
 14 15  1  0
 14 16  2  0
 16 17  1  0
 17 18  2  0
 17 19  1  0
 19 20  1  0
  7 21  1  0
 21 22  2  0
 22 23  1  0
 22  4  1  0
 19  8  2  0
 16 10  1  0
  1 24  1  0
  1 25  1  0
  1 26  1  0
  2 27  1  0
  2 28  1  0
  3 29  1  0
  3 30  1  0
  5 31  1  0
  6 32  1  0
 11 33  1  0
 12 34  1  0
 13 35  1  0
 15 36  1  0
 20 37  1  0
 21 38  1  0
 23 39  1  0
 23 40  1  0
 23 41  1  0
M  END
>  <meeko>  (5) 
{"is_sidechain": [false], "free_energy": -8.557, "intermolecular_energy": -10.709, "internal_energy": -0.398}

$$$$
cand_055_out
     RDKit          3D

 41 43  0  0  0  0  0  0  0  0999 V2000
   20.0120  -25.1500   43.3760 C   0  0  0  0  0  0  0  0  0  0  0  0
   19.7780  -26.1070   42.2180 C   0  0  0  0  0  0  0  0  0  0  0  0
   21.0940  -26.7010   41.7120 C   0  0  0  0  0  0  0  0  0  0  0  0
   20.8610  -27.8430   40.7470 C   0  0  0  0  0  0  0  0  0  0  0  0
   19.6640  -27.8610   40.0110 C   0  0  0  0  0  0  0  0  0  0  0  0
   19.3880  -28.8940   39.1120 C   0  0  0  0  0  0  0  0  0  0  0  0
   20.3010  -29.9340   38.9190 C   0  0  0  0  0  0  0  0  0  0  0  0
   20.0220  -31.0520   37.9920 C   0  0  0  0  0  0  0  0  0  0  0  0
   20.3690  -30.7620   36.6770 O   0  0  0  0  0  0  0  0  0  0  0  0
   20.1640  -31.7140   35.7110 C   0  0  0  0  0  0  0  0  0  0  0  0
   20.5400  -31.3850   34.4080 C   0  0  0  0  0  0  0  0  0  0  0  0
   20.3560  -32.3080   33.3760 C   0  0  0  0  0  0  0  0  0  0  0  0
   19.7960  -33.5590   33.6470 C   0  0  0  0  0  0  0  0  0  0  0  0
   19.4220  -33.8840   34.9490 C   0  0  0  0  0  0  0  0  0  0  0  0
   18.8780  -35.1240   35.1440 O   0  0  0  0  0  0  0  0  0  0  0  0
   19.6070  -32.9590   35.9810 C   0  0  0  0  0  0  0  0  0  0  0  0
   19.2270  -33.2610   37.3620 C   0  0  0  0  0  0  0  0  0  0  0  0
   18.7220  -34.3360   37.6780 O   0  0  0  0  0  0  0  0  0  0  0  0
   19.4710  -32.2160   38.3830 C   0  0  0  0  0  0  0  0  0  0  0  0
   19.0960  -32.5080   39.6820 O   0  0  0  0  0  0  0  0  0  0  0  0
   21.4890  -29.9250   39.6650 C   0  0  0  0  0  0  0  0  0  0  0  0
   21.7810  -28.8970   40.5810 C   0  0  0  0  0  0  0  0  0  0  0  0
   23.0820  -28.9430   41.3330 C   0  0  0  0  0  0  0  0  0  0  0  0
   19.8808  -25.6865   44.3273 H   0  0  0  0  0  0  0  0  0  0  0  0
   21.0347  -24.7489   43.3193 H   0  0  0  0  0  0  0  0  0  0  0  0
   19.2898  -24.3222   43.3193 H   0  0  0  0  0  0  0  0  0  0  0  0
   19.1226  -26.9236   42.5551 H   0  0  0  0  0  0  0  0  0  0  0  0
   19.3108  -25.5472   41.3944 H   0  0  0  0  0  0  0  0  0  0  0  0
   21.6665  -25.9135   41.2001 H   0  0  0  0  0  0  0  0  0  0  0  0
   21.6475  -27.0928   42.5781 H   0  0  0  0  0  0  0  0  0  0  0  0
   18.9335  -27.0496   40.1448 H   0  0  0  0  0  0  0  0  0  0  0  0
   18.4422  -28.8886   38.5503 H   0  0  0  0  0  0  0  0  0  0  0  0
   20.9807  -30.4001   34.1940 H   0  0  0  0  0  0  0  0  0  0  0  0
   20.6523  -32.0497   32.3486 H   0  0  0  0  0  0  0  0  0  0  0  0
   19.6507  -34.2857   32.8341 H   0  0  0  0  0  0  0  0  0  0  0  0
   18.6040  -35.6360   34.4080 H   0  0  0  0  0  0  0  0  0  0  0  0
   19.7460  -32.5650   40.3550 H   0  0  0  0  0  0  0  0  0  0  0  0
   22.2117  -30.7433   39.5305 H   0  0  0  0  0  0  0  0  0  0  0  0
   22.8809  -28.9359   42.4144 H   0  0  0  0  0  0  0  0  0  0  0  0
   23.6268  -29.8610   41.0674 H   0  0  0  0  0  0  0  0  0  0  0  0
   23.6903  -28.0658   41.0674 H   0  0  0  0  0  0  0  0  0  0  0  0
  1  2  1  0
  2  3  1  0
  3  4  1  0
  4  5  2  0
  5  6  1  0
  6  7  2  0
  7  8  1  0
  8  9  1  0
  9 10  1  0
 10 11  2  0
 11 12  1  0
 12 13  2  0
 13 14  1  0
 14 15  1  0
 14 16  2  0
 16 17  1  0
 17 18  2  0
 17 19  1  0
 19 20  1  0
  7 21  1  0
 21 22  2  0
 22 23  1  0
 22  4  1  0
 19  8  2  0
 16 10  1  0
  1 24  1  0
  1 25  1  0
  1 26  1  0
  2 27  1  0
  2 28  1  0
  3 29  1  0
  3 30  1  0
  5 31  1  0
  6 32  1  0
 11 33  1  0
 12 34  1  0
 13 35  1  0
 15 36  1  0
 20 37  1  0
 21 38  1  0
 23 39  1  0
 23 40  1  0
 23 41  1  0
M  END
>  <meeko>  (6) 
{"is_sidechain": [false], "free_energy": -8.447, "intermolecular_energy": -10.438, "internal_energy": -0.535}

$$$$
cand_055_out
     RDKit          3D

 41 43  0  0  0  0  0  0  0  0999 V2000
   18.9100  -35.3710   37.0150 C   0  0  0  0  0  0  0  0  0  0  0  0
   18.5650  -33.9610   37.4690 C   0  0  0  0  0  0  0  0  0  0  0  0
   19.2940  -32.9110   36.6300 C   0  0  0  0  0  0  0  0  0  0  0  0
   19.8570  -31.7980   37.4860 C   0  0  0  0  0  0  0  0  0  0  0  0
   19.7690  -31.9220   38.8830 C   0  0  0  0  0  0  0  0  0  0  0  0
   20.2620  -30.9230   39.7260 C   0  0  0  0  0  0  0  0  0  0  0  0
   20.8620  -29.7770   39.1990 C   0  0  0  0  0  0  0  0  0  0  0  0
   21.3700  -28.6940   40.0680 C   0  0  0  0  0  0  0  0  0  0  0  0
   22.3060  -29.1400   40.9950 O   0  0  0  0  0  0  0  0  0  0  0  0
   22.8600  -28.2380   41.8660 C   0  0  0  0  0  0  0  0  0  0  0  0
   23.8050  -28.7260   42.7690 C   0  0  0  0  0  0  0  0  0  0  0  0
   24.4070  -27.8600   43.6840 C   0  0  0  0  0  0  0  0  0  0  0  0
   24.0630  -26.5070   43.6980 C   0  0  0  0  0  0  0  0  0  0  0  0
   23.1210  -26.0220   42.7950 C   0  0  0  0  0  0  0  0  0  0  0  0
   22.8300  -24.6870   42.8630 O   0  0  0  0  0  0  0  0  0  0  0  0
   22.5190  -26.8890   41.8790 C   0  0  0  0  0  0  0  0  0  0  0  0
   21.5230  -26.4200   40.9140 C   0  0  0  0  0  0  0  0  0  0  0  0
   21.1640  -25.2450   40.8680 O   0  0  0  0  0  0  0  0  0  0  0  0
   20.9510  -27.4180   39.9800 C   0  0  0  0  0  0  0  0  0  0  0  0
   20.0020  -26.9660   39.0810 O   0  0  0  0  0  0  0  0  0  0  0  0
   20.9370  -29.6460   37.8040 C   0  0  0  0  0  0  0  0  0  0  0  0
   20.4390  -30.6380   36.9380 C   0  0  0  0  0  0  0  0  0  0  0  0
   20.5690  -30.4390   35.4540 C   0  0  0  0  0  0  0  0  0  0  0  0
   19.0667  -36.0116   37.8954 H   0  0  0  0  0  0  0  0  0  0  0  0
   18.0840  -35.7740   36.4106 H   0  0  0  0  0  0  0  0  0  0  0  0
   19.8288  -35.3471   36.4106 H   0  0  0  0  0  0  0  0  0  0  0  0
   17.4802  -33.8084   37.3697 H   0  0  0  0  0  0  0  0  0  0  0  0
   18.8808  -33.8475   38.5166 H   0  0  0  0  0  0  0  0  0  0  0  0
   20.1200  -33.3975   36.0904 H   0  0  0  0  0  0  0  0  0  0  0  0
   18.5691  -32.4699   35.9300 H   0  0  0  0  0  0  0  0  0  0  0  0
   19.3051  -32.8189   39.3192 H   0  0  0  0  0  0  0  0  0  0  0  0
   20.1768  -31.0401   40.8164 H   0  0  0  0  0  0  0  0  0  0  0  0
   24.0756  -29.7922   42.7601 H   0  0  0  0  0  0  0  0  0  0  0  0
   25.1534  -28.2443   44.3948 H   0  0  0  0  0  0  0  0  0  0  0  0
   24.5353  -25.8257   44.4210 H   0  0  0  0  0  0  0  0  0  0  0  0
   23.5200  -24.0540   42.8220 H   0  0  0  0  0  0  0  0  0  0  0  0
   19.7360  -27.5110   38.3680 H   0  0  0  0  0  0  0  0  0  0  0  0
   21.3974  -28.7436   37.3753 H   0  0  0  0  0  0  0  0  0  0  0  0
   21.1608  -29.5331   35.2560 H   0  0  0  0  0  0  0  0  0  0  0  0
   21.0726  -31.3103   35.0099 H   0  0  0  0  0  0  0  0  0  0  0  0
   19.5688  -30.3279   35.0099 H   0  0  0  0  0  0  0  0  0  0  0  0
  1  2  1  0
  2  3  1  0
  3  4  1  0
  4  5  2  0
  5  6  1  0
  6  7  2  0
  7  8  1  0
  8  9  1  0
  9 10  1  0
 10 11  2  0
 11 12  1  0
 12 13  2  0
 13 14  1  0
 14 15  1  0
 14 16  2  0
 16 17  1  0
 17 18  2  0
 17 19  1  0
 19 20  1  0
  7 21  1  0
 21 22  2  0
 22 23  1  0
 22  4  1  0
 19  8  2  0
 16 10  1  0
  1 24  1  0
  1 25  1  0
  1 26  1  0
  2 27  1  0
  2 28  1  0
  3 29  1  0
  3 30  1  0
  5 31  1  0
  6 32  1  0
 11 33  1  0
 12 34  1  0
 13 35  1  0
 15 36  1  0
 20 37  1  0
 21 38  1  0
 23 39  1  0
 23 40  1  0
 23 41  1  0
M  END
>  <meeko>  (7) 
{"is_sidechain": [false], "free_energy": -8.303, "intermolecular_energy": -10.456, "internal_energy": -0.339}

$$$$
cand_055_out
     RDKit          3D

 41 43  0  0  0  0  0  0  0  0999 V2000
   20.1240  -31.1110   33.5270 C   0  0  0  0  0  0  0  0  0  0  0  0
   20.8650  -30.8240   34.8240 C   0  0  0  0  0  0  0  0  0  0  0  0
   20.0930  -31.3510   36.0350 C   0  0  0  0  0  0  0  0  0  0  0  0
   20.5300  -30.6770   37.3170 C   0  0  0  0  0  0  0  0  0  0  0  0
   21.3480  -29.5380   37.2260 C   0  0  0  0  0  0  0  0  0  0  0  0
   21.7920  -28.8780   38.3750 C   0  0  0  0  0  0  0  0  0  0  0  0
   21.4270  -29.3330   39.6450 C   0  0  0  0  0  0  0  0  0  0  0  0
   21.9030  -28.6680   40.8770 C   0  0  0  0  0  0  0  0  0  0  0  0
   21.1020  -27.5950   41.2540 O   0  0  0  0  0  0  0  0  0  0  0  0
   21.4300  -26.8880   42.3820 C   0  0  0  0  0  0  0  0  0  0  0  0
   20.5910  -25.8290   42.7320 C   0  0  0  0  0  0  0  0  0  0  0  0
   20.8680  -25.0660   43.8680 C   0  0  0  0  0  0  0  0  0  0  0  0
   21.9850  -25.3610   44.6540 C   0  0  0  0  0  0  0  0  0  0  0  0
   22.8200  -26.4180   44.3030 C   0  0  0  0  0  0  0  0  0  0  0  0
   23.8960  -26.6510   45.1140 O   0  0  0  0  0  0  0  0  0  0  0  0
   22.5410  -27.1820   43.1660 C   0  0  0  0  0  0  0  0  0  0  0  0
   23.3940  -28.3010   42.7610 C   0  0  0  0  0  0  0  0  0  0  0  0
   24.3970  -28.6170   43.3970 O   0  0  0  0  0  0  0  0  0  0  0  0
   23.0070  -29.0510   41.5440 C   0  0  0  0  0  0  0  0  0  0  0  0
   23.8270  -30.0990   41.1640 O   0  0  0  0  0  0  0  0  0  0  0  0
   20.6230  -30.4800   39.7360 C   0  0  0  0  0  0  0  0  0  0  0  0
   20.1730  -31.1620   38.5900 C   0  0  0  0  0  0  0  0  0  0  0  0
   19.2990  -32.3730   38.7630 C   0  0  0  0  0  0  0  0  0  0  0  0
   19.1208  -31.4996   33.7561 H   0  0  0  0  0  0  0  0  0  0  0  0
   20.0333  -30.1830   32.9434 H   0  0  0  0  0  0  0  0  0  0  0  0
   20.6821  -31.8580   32.9434 H   0  0  0  0  0  0  0  0  0  0  0  0
   21.8509  -31.3106   34.7884 H   0  0  0  0  0  0  0  0  0  0  0  0
   20.9717  -29.7342   34.9284 H   0  0  0  0  0  0  0  0  0  0  0  0
   19.0199  -31.1636   35.8822 H   0  0  0  0  0  0  0  0  0  0  0  0
   20.2971  -32.4279   36.1282 H   0  0  0  0  0  0  0  0  0  0  0  0
   21.6431  -29.1604   36.2359 H   0  0  0  0  0  0  0  0  0  0  0  0
   22.4355  -27.9911   38.2788 H   0  0  0  0  0  0  0  0  0  0  0  0
   19.7120  -25.5956   42.1132 H   0  0  0  0  0  0  0  0  0  0  0  0
   20.2063  -24.2319   44.1445 H   0  0  0  0  0  0  0  0  0  0  0  0
   22.2040  -24.7592   45.5483 H   0  0  0  0  0  0  0  0  0  0  0  0
   23.8630  -26.4040   46.0180 H   0  0  0  0  0  0  0  0  0  0  0  0
   24.2640  -30.6110   41.8160 H   0  0  0  0  0  0  0  0  0  0  0  0
   20.3370  -30.8559   40.7295 H   0  0  0  0  0  0  0  0  0  0  0  0
   19.1557  -32.5716   39.8354 H   0  0  0  0  0  0  0  0  0  0  0  0
   18.3226  -32.1911   38.2901 H   0  0  0  0  0  0  0  0  0  0  0  0
   19.7792  -33.2423   38.2901 H   0  0  0  0  0  0  0  0  0  0  0  0
  1  2  1  0
  2  3  1  0
  3  4  1  0
  4  5  2  0
  5  6  1  0
  6  7  2  0
  7  8  1  0
  8  9  1  0
  9 10  1  0
 10 11  2  0
 11 12  1  0
 12 13  2  0
 13 14  1  0
 14 15  1  0
 14 16  2  0
 16 17  1  0
 17 18  2  0
 17 19  1  0
 19 20  1  0
  7 21  1  0
 21 22  2  0
 22 23  1  0
 22  4  1  0
 19  8  2  0
 16 10  1  0
  1 24  1  0
  1 25  1  0
  1 26  1  0
  2 27  1  0
  2 28  1  0
  3 29  1  0
  3 30  1  0
  5 31  1  0
  6 32  1  0
 11 33  1  0
 12 34  1  0
 13 35  1  0
 15 36  1  0
 20 37  1  0
 21 38  1  0
 23 39  1  0
 23 40  1  0
 23 41  1  0
M  END
>  <meeko>  (8) 
{"is_sidechain": [false], "free_energy": -8.141, "intermolecular_energy": -10.056, "internal_energy": -0.539}

$$$$
cand_055_out
     RDKit          3D

 41 43  0  0  0  0  0  0  0  0999 V2000
   19.8280  -24.0600   46.2930 C   0  0  0  0  0  0  0  0  0  0  0  0
   20.7390  -23.8520   45.0940 C   0  0  0  0  0  0  0  0  0  0  0  0
   21.7580  -24.9860   44.9650 C   0  0  0  0  0  0  0  0  0  0  0  0
   21.5720  -25.7670   43.6830 C   0  0  0  0  0  0  0  0  0  0  0  0
   20.3000  -25.7800   43.0890 C   0  0  0  0  0  0  0  0  0  0  0  0
   20.0630  -26.4910   41.9100 C   0  0  0  0  0  0  0  0  0  0  0  0
   21.0930  -27.2040   41.2890 C   0  0  0  0  0  0  0  0  0  0  0  0
   20.8640  -27.9840   40.0530 C   0  0  0  0  0  0  0  0  0  0  0  0
   20.5190  -29.3070   40.3070 O   0  0  0  0  0  0  0  0  0  0  0  0
   20.2780  -30.1440   39.2480 C   0  0  0  0  0  0  0  0  0  0  0  0
   19.9200  -31.4600   39.5480 C   0  0  0  0  0  0  0  0  0  0  0  0
   19.6630  -32.3650   38.5170 C   0  0  0  0  0  0  0  0  0  0  0  0
   19.7650  -31.9560   37.1850 C   0  0  0  0  0  0  0  0  0  0  0  0
   20.1220  -30.6430   36.8880 C   0  0  0  0  0  0  0  0  0  0  0  0
   20.2050  -30.3100   35.5640 O   0  0  0  0  0  0  0  0  0  0  0  0
   20.3780  -29.7370   37.9220 C   0  0  0  0  0  0  0  0  0  0  0  0
   20.7570  -28.3490   37.6530 C   0  0  0  0  0  0  0  0  0  0  0  0
   20.8740  -27.9160   36.5080 O   0  0  0  0  0  0  0  0  0  0  0  0
   21.0000  -27.4680   38.8180 C   0  0  0  0  0  0  0  0  0  0  0  0
   21.3690  -26.1610   38.5520 O   0  0  0  0  0  0  0  0  0  0  0  0
   22.3610  -27.2030   41.8900 C   0  0  0  0  0  0  0  0  0  0  0  0
   22.6150  -26.4990   43.0820 C   0  0  0  0  0  0  0  0  0  0  0  0
   24.0030  -26.5280   43.6600 C   0  0  0  0  0  0  0  0  0  0  0  0
   20.4057  -23.9281   47.2197 H   0  0  0  0  0  0  0  0  0  0  0  0
   19.0096  -23.3256   46.2635 H   0  0  0  0  0  0  0  0  0  0  0  0
   19.4094  -25.0768   46.2635 H   0  0  0  0  0  0  0  0  0  0  0  0
   20.1265  -23.8154   44.1810 H   0  0  0  0  0  0  0  0  0  0  0  0
   21.2865  -22.9083   45.2343 H   0  0  0  0  0  0  0  0  0  0  0  0
   22.7709  -24.5572   44.9766 H   0  0  0  0  0  0  0  0  0  0  0  0
   21.6101  -25.6755   45.8092 H   0  0  0  0  0  0  0  0  0  0  0  0
   19.4771  -25.2217   43.5592 H   0  0  0  0  0  0  0  0  0  0  0  0
   19.0566  -26.4899   41.4661 H   0  0  0  0  0  0  0  0  0  0  0  0
   19.8406  -31.7833   40.5964 H   0  0  0  0  0  0  0  0  0  0  0  0
   19.3799  -33.4013   38.7534 H   0  0  0  0  0  0  0  0  0  0  0  0
   19.5637  -32.6696   36.3724 H   0  0  0  0  0  0  0  0  0  0  0  0
   20.8330  -29.6760   35.2790 H   0  0  0  0  0  0  0  0  0  0  0  0
   21.2670  -25.8130   37.6880 H   0  0  0  0  0  0  0  0  0  0  0  0
   23.1782  -27.7674   41.4170 H   0  0  0  0  0  0  0  0  0  0  0  0
   23.9429  -26.5267   44.7584 H   0  0  0  0  0  0  0  0  0  0  0  0
   24.5219  -27.4372   43.3222 H   0  0  0  0  0  0  0  0  0  0  0  0
   24.5595  -25.6413   43.3222 H   0  0  0  0  0  0  0  0  0  0  0  0
  1  2  1  0
  2  3  1  0
  3  4  1  0
  4  5  2  0
  5  6  1  0
  6  7  2  0
  7  8  1  0
  8  9  1  0
  9 10  1  0
 10 11  2  0
 11 12  1  0
 12 13  2  0
 13 14  1  0
 14 15  1  0
 14 16  2  0
 16 17  1  0
 17 18  2  0
 17 19  1  0
 19 20  1  0
  7 21  1  0
 21 22  2  0
 22 23  1  0
 22  4  1  0
 19  8  2  0
 16 10  1  0
  1 24  1  0
  1 25  1  0
  1 26  1  0
  2 27  1  0
  2 28  1  0
  3 29  1  0
  3 30  1  0
  5 31  1  0
  6 32  1  0
 11 33  1  0
 12 34  1  0
 13 35  1  0
 15 36  1  0
 20 37  1  0
 21 38  1  0
 23 39  1  0
 23 40  1  0
 23 41  1  0
M  END
>  <meeko>  (9) 
{"is_sidechain": [false], "free_energy": -7.996, "intermolecular_energy": -9.85, "internal_energy": -0.566}

$$$$
