cand_048_out
     RDKit          3D

 37 39  0  0  0  0  0  0  0  0999 V2000
   23.3860  -26.6800   44.7890 C   0  0  0  0  0  0  0  0  0  0  0  0
   23.9050  -26.8770   43.5700 C   0  0  0  0  0  0  0  0  0  0  0  0
   23.2790  -27.7240   42.5380 C   0  0  0  0  0  0  0  0  0  0  0  0
   22.2120  -27.2100   41.7840 C   0  0  0  0  0  0  0  0  0  0  0  0
   21.6180  -27.9650   40.7690 C   0  0  0  0  0  0  0  0  0  0  0  0
   22.0810  -29.2510   40.4720 C   0  0  0  0  0  0  0  0  0  0  0  0
   21.4190  -30.0460   39.4170 C   0  0  0  0  0  0  0  0  0  0  0  0
   20.6110  -31.0560   39.9270 O   0  0  0  0  0  0  0  0  0  0  0  0
   19.9380  -31.8710   39.0540 C   0  0  0  0  0  0  0  0  0  0  0  0
   19.1510  -32.8820   39.6090 C   0  0  0  0  0  0  0  0  0  0  0  0
   18.4380  -33.7460   38.7770 C   0  0  0  0  0  0  0  0  0  0  0  0
   18.5090  -33.6000   37.3910 C   0  0  0  0  0  0  0  0  0  0  0  0
   19.2950  -32.5910   36.8390 C   0  0  0  0  0  0  0  0  0  0  0  0
   19.3200  -32.5040   35.4740 O   0  0  0  0  0  0  0  0  0  0  0  0
   20.0100  -31.7260   37.6730 C   0  0  0  0  0  0  0  0  0  0  0  0
   20.8470  -30.6540   37.1340 C   0  0  0  0  0  0  0  0  0  0  0  0
   20.9560  -30.4560   35.9260 O   0  0  0  0  0  0  0  0  0  0  0  0
   21.5700  -29.7970   38.1030 C   0  0  0  0  0  0  0  0  0  0  0  0
   22.3470  -28.7780   37.5850 O   0  0  0  0  0  0  0  0  0  0  0  0
   23.1470  -29.7660   41.2240 C   0  0  0  0  0  0  0  0  0  0  0  0
   23.7670  -29.0140   42.2410 C   0  0  0  0  0  0  0  0  0  0  0  0
   24.8640  -29.6220   43.0170 C   0  0  0  0  0  0  0  0  0  0  0  0
   25.0370  -30.9440   43.1470 C   0  0  0  0  0  0  0  0  0  0  0  0
   23.9073  -26.0342   45.5109 H   0  0  0  0  0  0  0  0  0  0  0  0
   22.4385  -27.1640   45.0681 H   0  0  0  0  0  0  0  0  0  0  0  0
   24.8539  -26.3776   43.3244 H   0  0  0  0  0  0  0  0  0  0  0  0
   21.8378  -26.1974   41.9954 H   0  0  0  0  0  0  0  0  0  0  0  0
   20.7777  -27.5436   40.1978 H   0  0  0  0  0  0  0  0  0  0  0  0
   19.0931  -32.9973   40.7014 H   0  0  0  0  0  0  0  0  0  0  0  0
   17.8191  -34.5433   39.2143 H   0  0  0  0  0  0  0  0  0  0  0  0
   17.9454  -34.2803   36.7356 H   0  0  0  0  0  0  0  0  0  0  0  0
   19.7700  -33.1530   34.9710 H   0  0  0  0  0  0  0  0  0  0  0  0
   21.9400  -28.0470   37.1640 H   0  0  0  0  0  0  0  0  0  0  0  0
   23.5083  -30.7836   41.0142 H   0  0  0  0  0  0  0  0  0  0  0  0
   25.5798  -28.9528   43.5167 H   0  0  0  0  0  0  0  0  0  0  0  0
   25.8772  -31.3330   43.7409 H   0  0  0  0  0  0  0  0  0  0  0  0
   24.3388  -31.6406   42.6599 H   0  0  0  0  0  0  0  0  0  0  0  0
  1  2  2  0
  2  3  1  0
  3  4  2  0
  4  5  1  0
  5  6  2  0
  6  7  1  0
  7  8  1  0
  8  9  1  0
  9 10  2  0
 10 11  1  0
 11 12  2  0
 12 13  1  0
 13 14  1  0
 13 15  2  0
 15 16  1  0
 16 17  2  0
 16 18  1  0
 18 19  1  0
  6 20  1  0
 20 21  2  0
 21 22  1  0
 22 23  2  0
 21  3  1  0
 18  7  2  0
 15  9  1  0
  1 24  1  0
  1 25  1  0
  2 26  1  0
  4 27  1  0
  5 28  1  0
 10 29  1  0
 11 30  1  0
 12 31  1  0
 14 32  1  0
 19 33  1  0
 20 34  1  0
 22 35  1  0
 23 36  1  0
 23 37  1  0
M  END
>  <meeko>  (1) 
{"is_sidechain": [false], "free_energy": -9.513, "intermolecular_energy": -11.738, "internal_energy": -0.591}

$$$$
cand_048_out
     RDKit          3D

 37 39  0  0  0  0  0  0  0  0999 V2000
   24.2000  -27.4210   43.9950 C   0  0  0  0  0  0  0  0  0  0  0  0
   23.4290  -26.9450   43.0100 C   0  0  0  0  0  0  0  0  0  0  0  0
   22.7760  -27.7910   41.9950 C   0  0  0  0  0  0  0  0  0  0  0  0
   23.3980  -28.9850   41.5950 C   0  0  0  0  0  0  0  0  0  0  0  0
   22.7930  -29.8350   40.6660 C   0  0  0  0  0  0  0  0  0  0  0  0
   21.5450  -29.5220   40.1180 C   0  0  0  0  0  0  0  0  0  0  0  0
   20.9370  -30.4180   39.1120 C   0  0  0  0  0  0  0  0  0  0  0  0
   20.2400  -31.4770   39.6810 O   0  0  0  0  0  0  0  0  0  0  0  0
   19.6270  -32.3870   38.8580 C   0  0  0  0  0  0  0  0  0  0  0  0
   18.9520  -33.4430   39.4720 C   0  0  0  0  0  0  0  0  0  0  0  0
   18.3050  -34.4030   38.6920 C   0  0  0  0  0  0  0  0  0  0  0  0
   18.3310  -34.3060   37.2990 C   0  0  0  0  0  0  0  0  0  0  0  0
   19.0050  -33.2520   36.6890 C   0  0  0  0  0  0  0  0  0  0  0  0
   18.9900  -33.2180   35.3220 O   0  0  0  0  0  0  0  0  0  0  0  0
   19.6540  -32.2910   37.4700 C   0  0  0  0  0  0  0  0  0  0  0  0
   20.3730  -31.1680   36.8690 C   0  0  0  0  0  0  0  0  0  0  0  0
   20.4360  -31.0100   35.6520 O   0  0  0  0  0  0  0  0  0  0  0  0
   21.0340  -30.2090   37.7860 C   0  0  0  0  0  0  0  0  0  0  0  0
   21.7000  -29.1440   37.2090 O   0  0  0  0  0  0  0  0  0  0  0  0
   20.9220  -28.3300   40.5150 C   0  0  0  0  0  0  0  0  0  0  0  0
   21.5100  -27.4680   41.4620 C   0  0  0  0  0  0  0  0  0  0  0  0
   20.8200  -26.2150   41.8170 C   0  0  0  0  0  0  0  0  0  0  0  0
   19.7760  -26.1530   42.6540 C   0  0  0  0  0  0  0  0  0  0  0  0
   24.6565  -26.7300   44.7189 H   0  0  0  0  0  0  0  0  0  0  0  0
   24.3772  -28.5033   44.0806 H   0  0  0  0  0  0  0  0  0  0  0  0
   23.2734  -25.8575   42.9546 H   0  0  0  0  0  0  0  0  0  0  0  0
   24.3762  -29.2549   42.0196 H   0  0  0  0  0  0  0  0  0  0  0  0
   23.3038  -30.7606   40.3622 H   0  0  0  0  0  0  0  0  0  0  0  0
   18.9298  -33.5187   40.5692 H   0  0  0  0  0  0  0  0  0  0  0  0
   17.7742  -35.2367   39.1750 H   0  0  0  0  0  0  0  0  0  0  0  0
   17.8195  -35.0616   36.6847 H   0  0  0  0  0  0  0  0  0  0  0  0
   18.2770  -32.8120   34.8700 H   0  0  0  0  0  0  0  0  0  0  0  0
   22.1560  -29.2590   36.3990 H   0  0  0  0  0  0  0  0  0  0  0  0
   19.9498  -28.0611   40.0761 H   0  0  0  0  0  0  0  0  0  0  0  0
   21.1828  -25.2779   41.3694 H   0  0  0  0  0  0  0  0  0  0  0  0
   19.3063  -25.1835   42.8766 H   0  0  0  0  0  0  0  0  0  0  0  0
   19.3884  -27.0716   43.1187 H   0  0  0  0  0  0  0  0  0  0  0  0
  1  2  2  0
  2  3  1  0
  3  4  2  0
  4  5  1  0
  5  6  2  0
  6  7  1  0
  7  8  1  0
  8  9  1  0
  9 10  2  0
 10 11  1  0
 11 12  2  0
 12 13  1  0
 13 14  1  0
 13 15  2  0
 15 16  1  0
 16 17  2  0
 16 18  1  0
 18 19  1  0
  6 20  1  0
 20 21  2  0
 21 22  1  0
 22 23  2  0
 21  3  1  0
 18  7  2  0
 15  9  1  0
  1 24  1  0
  1 25  1  0
  2 26  1  0
  4 27  1  0
  5 28  1  0
 10 29  1  0
 11 30  1  0
 12 31  1  0
 14 32  1  0
 19 33  1  0
 20 34  1  0
 22 35  1  0
 23 36  1  0
 23 37  1  0
M  END
>  <meeko>  (2) 
{"is_sidechain": [false], "free_energy": -9.208, "intermolecular_energy": -11.312, "internal_energy": -0.641}

$$$$
cand_048_out
     RDKit          3D

 37 39  0  0  0  0  0  0  0  0999 V2000
   20.0730  -32.1100   35.0750 C   0  0  0  0  0  0  0  0  0  0  0  0
   19.6860  -32.1450   36.3560 C   0  0  0  0  0  0  0  0  0  0  0  0
   20.1510  -31.1950   37.3820 C   0  0  0  0  0  0  0  0  0  0  0  0
   21.1350  -30.2500   37.0450 C   0  0  0  0  0  0  0  0  0  0  0  0
   21.5740  -29.3060   37.9760 C   0  0  0  0  0  0  0  0  0  0  0  0
   21.0370  -29.2710   39.2670 C   0  0  0  0  0  0  0  0  0  0  0  0
   21.5380  -28.2860   40.2470 C   0  0  0  0  0  0  0  0  0  0  0  0
   22.4230  -28.8380   41.1660 O   0  0  0  0  0  0  0  0  0  0  0  0
   22.9630  -28.0320   42.1350 C   0  0  0  0  0  0  0  0  0  0  0  0
   23.8340  -28.6320   43.0450 C   0  0  0  0  0  0  0  0  0  0  0  0
   24.4200  -27.8670   44.0560 C   0  0  0  0  0  0  0  0  0  0  0  0
   24.1380  -26.5040   44.1540 C   0  0  0  0  0  0  0  0  0  0  0  0
   23.2680  -25.9070   43.2440 C   0  0  0  0  0  0  0  0  0  0  0  0
   23.0360  -24.5680   43.3990 O   0  0  0  0  0  0  0  0  0  0  0  0
   22.6810  -26.6730   42.2340 C   0  0  0  0  0  0  0  0  0  0  0  0
   21.7620  -26.0860   41.2580 C   0  0  0  0  0  0  0  0  0  0  0  0
   21.4700  -24.8920   41.2740 O   0  0  0  0  0  0  0  0  0  0  0  0
   21.1870  -26.9860   40.2310 C   0  0  0  0  0  0  0  0  0  0  0  0
   20.3320  -26.4200   39.3050 O   0  0  0  0  0  0  0  0  0  0  0  0
   20.0540  -30.2140   39.6050 C   0  0  0  0  0  0  0  0  0  0  0  0
   19.5890  -31.1630   38.6750 C   0  0  0  0  0  0  0  0  0  0  0  0
   18.5760  -32.1470   39.1000 C   0  0  0  0  0  0  0  0  0  0  0  0
   18.8670  -33.2690   39.7730 C   0  0  0  0  0  0  0  0  0  0  0  0
   19.6844  -32.8526   34.3626 H   0  0  0  0  0  0  0  0  0  0  0  0
   20.7796  -31.3387   34.7348 H   0  0  0  0  0  0  0  0  0  0  0  0
   18.9784  -32.9300   36.6610 H   0  0  0  0  0  0  0  0  0  0  0  0
   21.5659  -30.2538   36.0329 H   0  0  0  0  0  0  0  0  0  0  0  0
   22.3511  -28.5816   37.6906 H   0  0  0  0  0  0  0  0  0  0  0  0
   24.0588  -29.7059   42.9663 H   0  0  0  0  0  0  0  0  0  0  0  0
   25.1046  -28.3395   44.7758 H   0  0  0  0  0  0  0  0  0  0  0  0
   24.6020  -25.9015   44.9488 H   0  0  0  0  0  0  0  0  0  0  0  0
   23.2990  -24.1340   44.1860 H   0  0  0  0  0  0  0  0  0  0  0  0
   20.6560  -25.7910   38.6910 H   0  0  0  0  0  0  0  0  0  0  0  0
   19.6363  -30.2115   40.6226 H   0  0  0  0  0  0  0  0  0  0  0  0
   17.5230  -31.9491   38.8508 H   0  0  0  0  0  0  0  0  0  0  0  0
   18.0627  -33.9621   40.0606 H   0  0  0  0  0  0  0  0  0  0  0  0
   19.9101  -33.4967   40.0378 H   0  0  0  0  0  0  0  0  0  0  0  0
  1  2  2  0
  2  3  1  0
  3  4  2  0
  4  5  1  0
  5  6  2  0
  6  7  1  0
  7  8  1  0
  8  9  1  0
  9 10  2  0
 10 11  1  0
 11 12  2  0
 12 13  1  0
 13 14  1  0
 13 15  2  0
 15 16  1  0
 16 17  2  0
 16 18  1  0
 18 19  1  0
  6 20  1  0
 20 21  2  0
 21 22  1  0
 22 23  2  0
 21  3  1  0
 18  7  2  0
 15  9  1  0
  1 24  1  0
  1 25  1  0
  2 26  1  0
  4 27  1  0
  5 28  1  0
 10 29  1  0
 11 30  1  0
 12 31  1  0
 14 32  1  0
 19 33  1  0
 20 34  1  0
 22 35  1  0
 23 36  1  0
 23 37  1  0
M  END
>  <meeko>  (3) 
{"is_sidechain": [false], "free_energy": -8.758, "intermolecular_energy": -10.8, "internal_energy": -0.596}

$$$$
cand_048_out
     RDKit          3D

 37 39  0  0  0  0  0  0  0  0999 V2000
   21.9660  -24.9560   45.5160 C   0  0  0  0  0  0  0  0  0  0  0  0
   22.7100  -25.9450   45.0070 C   0  0  0  0  0  0  0  0  0  0  0  0
   22.3700  -26.6790   43.7750 C   0  0  0  0  0  0  0  0  0  0  0  0
   21.1460  -26.4190   43.1380 C   0  0  0  0  0  0  0  0  0  0  0  0
   20.8040  -27.0630   41.9460 C   0  0  0  0  0  0  0  0  0  0  0  0
   21.6790  -27.9770   41.3510 C   0  0  0  0  0  0  0  0  0  0  0  0
   21.2850  -28.6730   40.1090 C   0  0  0  0  0  0  0  0  0  0  0  0
   20.7940  -29.9530   40.3370 O   0  0  0  0  0  0  0  0  0  0  0  0
   20.3920  -30.7100   39.2660 C   0  0  0  0  0  0  0  0  0  0  0  0
   19.9210  -31.9950   39.5400 C   0  0  0  0  0  0  0  0  0  0  0  0
   19.4950  -32.8180   38.4960 C   0  0  0  0  0  0  0  0  0  0  0  0
   19.5380  -32.3560   37.1790 C   0  0  0  0  0  0  0  0  0  0  0  0
   20.0090  -31.0740   36.9080 C   0  0  0  0  0  0  0  0  0  0  0  0
   20.0240  -30.6860   35.5970 O   0  0  0  0  0  0  0  0  0  0  0  0
   20.4370  -30.2510   37.9540 C   0  0  0  0  0  0  0  0  0  0  0  0
   20.9380  -28.8980   37.7130 C   0  0  0  0  0  0  0  0  0  0  0  0
   21.0010  -28.4170   36.5830 O   0  0  0  0  0  0  0  0  0  0  0  0
   21.3740  -28.1090   38.8890 C   0  0  0  0  0  0  0  0  0  0  0  0
   21.8340  -26.8270   38.6530 O   0  0  0  0  0  0  0  0  0  0  0  0
   22.9020  -28.2390   41.9860 C   0  0  0  0  0  0  0  0  0  0  0  0
   23.2700  -27.5880   43.1800 C   0  0  0  0  0  0  0  0  0  0  0  0
   24.5570  -27.9280   43.8150 C   0  0  0  0  0  0  0  0  0  0  0  0
   24.8660  -29.1530   44.2590 C   0  0  0  0  0  0  0  0  0  0  0  0
   22.2809  -24.4510   46.4411 H   0  0  0  0  0  0  0  0  0  0  0  0
   21.0395  -24.6480   45.0093 H   0  0  0  0  0  0  0  0  0  0  0  0
   23.6301  -26.2269   45.5398 H   0  0  0  0  0  0  0  0  0  0  0  0
   20.4457  -25.6974   43.5841 H   0  0  0  0  0  0  0  0  0  0  0  0
   19.8356  -26.8485   41.4704 H   0  0  0  0  0  0  0  0  0  0  0  0
   19.8855  -32.3588   40.5775 H   0  0  0  0  0  0  0  0  0  0  0  0
   19.1251  -33.8314   38.7110 H   0  0  0  0  0  0  0  0  0  0  0  0
   19.2003  -33.0039   36.3567 H   0  0  0  0  0  0  0  0  0  0  0  0
   20.8120  -30.3500   35.2160 H   0  0  0  0  0  0  0  0  0  0  0  0
   21.6320  -26.3990   37.8450 H   0  0  0  0  0  0  0  0  0  0  0  0
   23.5913  -28.9714   41.5404 H   0  0  0  0  0  0  0  0  0  0  0  0
   25.3054  -27.1302   43.9304 H   0  0  0  0  0  0  0  0  0  0  0  0
   25.8456  -29.3387   44.7237 H   0  0  0  0  0  0  0  0  0  0  0  0
   24.1402  -29.9735   44.1590 H   0  0  0  0  0  0  0  0  0  0  0  0
  1  2  2  0
  2  3  1  0
  3  4  2  0
  4  5  1  0
  5  6  2  0
  6  7  1  0
  7  8  1  0
  8  9  1  0
  9 10  2  0
 10 11  1  0
 11 12  2  0
 12 13  1  0
 13 14  1  0
 13 15  2  0
 15 16  1  0
 16 17  2  0
 16 18  1  0
 18 19  1  0
  6 20  1  0
 20 21  2  0
 21 22  1  0
 22 23  2  0
 21  3  1  0
 18  7  2  0
 15  9  1  0
  1 24  1  0
  1 25  1  0
  2 26  1  0
  4 27  1  0
  5 28  1  0
 10 29  1  0
 11 30  1  0
 12 31  1  0
 14 32  1  0
 19 33  1  0
 20 34  1  0
 22 35  1  0
 23 36  1  0
 23 37  1  0
M  END
>  <meeko>  (4) 
{"is_sidechain": [false], "free_energy": -8.699, "intermolecular_energy": -10.705, "internal_energy": -0.619}

$$$$
cand_048_out
     RDKit          3D

 37 39  0  0  0  0  0  0  0  0999 V2000
   20.5370  -31.0940   34.8540 C   0  0  0  0  0  0  0  0  0  0  0  0
   20.0980  -31.4170   36.0770 C   0  0  0  0  0  0  0  0  0  0  0  0
   20.5690  -30.7710   37.3150 C   0  0  0  0  0  0  0  0  0  0  0  0
   21.3410  -29.6010   37.2270 C   0  0  0  0  0  0  0  0  0  0  0  0
   21.7720  -28.9360   38.3780 C   0  0  0  0  0  0  0  0  0  0  0  0
   21.4360  -29.4140   39.6480 C   0  0  0  0  0  0  0  0  0  0  0  0
   21.9290  -28.7150   40.8530 C   0  0  0  0  0  0  0  0  0  0  0  0
   21.1140  -27.6560   41.2360 O   0  0  0  0  0  0  0  0  0  0  0  0
   21.4590  -26.9190   42.3410 C   0  0  0  0  0  0  0  0  0  0  0  0
   20.6210  -25.8560   42.6790 C   0  0  0  0  0  0  0  0  0  0  0  0
   20.9130  -25.0670   43.7930 C   0  0  0  0  0  0  0  0  0  0  0  0
   22.0400  -25.3420   44.5690 C   0  0  0  0  0  0  0  0  0  0  0  0
   22.8750  -26.4030   44.2290 C   0  0  0  0  0  0  0  0  0  0  0  0
   23.9610  -26.6170   45.0320 O   0  0  0  0  0  0  0  0  0  0  0  0
   22.5830  -27.1920   43.1130 C   0  0  0  0  0  0  0  0  0  0  0  0
   23.4330  -28.3170   42.7210 C   0  0  0  0  0  0  0  0  0  0  0  0
   24.4380  -28.6260   43.3570 O   0  0  0  0  0  0  0  0  0  0  0  0
   23.0400  -29.0860   41.5170 C   0  0  0  0  0  0  0  0  0  0  0  0
   23.8410  -30.1550   41.1620 O   0  0  0  0  0  0  0  0  0  0  0  0
   20.6650  -30.5830   39.7380 C   0  0  0  0  0  0  0  0  0  0  0  0
   20.2090  -31.2580   38.5900 C   0  0  0  0  0  0  0  0  0  0  0  0
   19.4270  -32.4980   38.7490 C   0  0  0  0  0  0  0  0  0  0  0  0
   18.2350  -32.5520   39.3570 C   0  0  0  0  0  0  0  0  0  0  0  0
   20.1414  -31.6181   33.9715 H   0  0  0  0  0  0  0  0  0  0  0  0
   21.2932  -30.3046   34.7318 H   0  0  0  0  0  0  0  0  0  0  0  0
   19.3415  -32.2110   36.1627 H   0  0  0  0  0  0  0  0  0  0  0  0
   21.6102  -29.2024   36.2378 H   0  0  0  0  0  0  0  0  0  0  0  0
   22.3827  -28.0260   38.2836 H   0  0  0  0  0  0  0  0  0  0  0  0
   19.7317  -25.6400   42.0687 H   0  0  0  0  0  0  0  0  0  0  0  0
   20.2540  -24.2275   44.0595 H   0  0  0  0  0  0  0  0  0  0  0  0
   22.2682  -24.7213   45.4480 H   0  0  0  0  0  0  0  0  0  0  0  0
   24.0100  -27.3890   45.5590 H   0  0  0  0  0  0  0  0  0  0  0  0
   24.5080  -30.0450   40.5130 H   0  0  0  0  0  0  0  0  0  0  0  0
   20.4105  -30.9821   40.7310 H   0  0  0  0  0  0  0  0  0  0  0  0
   19.8464  -33.4314   38.3454 H   0  0  0  0  0  0  0  0  0  0  0  0
   17.7038  -33.5115   39.4417 H   0  0  0  0  0  0  0  0  0  0  0  0
   17.7872  -31.6369   39.7717 H   0  0  0  0  0  0  0  0  0  0  0  0
  1  2  2  0
  2  3  1  0
  3  4  2  0
  4  5  1  0
  5  6  2  0
  6  7  1  0
  7  8  1  0
  8  9  1  0
  9 10  2  0
 10 11  1  0
 11 12  2  0
 12 13  1  0
 13 14  1  0
 13 15  2  0
 15 16  1  0
 16 17  2  0
 16 18  1  0
 18 19  1  0
  6 20  1  0
 20 21  2  0
 21 22  1  0
 22 23  2  0
 21  3  1  0
 18  7  2  0
 15  9  1  0
  1 24  1  0
  1 25  1  0
  2 26  1  0
  4 27  1  0
  5 28  1  0
 10 29  1  0
 11 30  1  0
 12 31  1  0
 14 32  1  0
 19 33  1  0
 20 34  1  0
 22 35  1  0
 23 36  1  0
 23 37  1  0
M  END
>  <meeko>  (5) 
{"is_sidechain": [false], "free_energy": -8.552, "intermolecular_energy": -10.514, "internal_energy": -0.629}

$$$$
cand_048_out
     RDKit          3D

 37 39  0  0  0  0  0  0  0  0999 V2000
   20.4640  -26.3240   42.7220 C   0  0  0  0  0  0  0  0  0  0  0  0
   21.0910  -26.5190   41.5550 C   0  0  0  0  0  0  0  0  0  0  0  0
   20.8520  -27.6790   40.6780 C   0  0  0  0  0  0  0  0  0  0  0  0
   19.6750  -27.7300   39.9130 C   0  0  0  0  0  0  0  0  0  0  0  0
   19.4300  -28.7930   39.0390 C   0  0  0  0  0  0  0  0  0  0  0  0
   20.3590  -29.8290   38.8970 C   0  0  0  0  0  0  0  0  0  0  0  0
   20.0660  -30.9600   37.9920 C   0  0  0  0  0  0  0  0  0  0  0  0
   20.4400  -30.7110   36.6770 O   0  0  0  0  0  0  0  0  0  0  0  0
   20.2230  -31.6810   35.7310 C   0  0  0  0  0  0  0  0  0  0  0  0
   20.5980  -31.3830   34.4200 C   0  0  0  0  0  0  0  0  0  0  0  0
   20.4070  -32.3260   33.4090 C   0  0  0  0  0  0  0  0  0  0  0  0
   19.8410  -33.5670   33.7080 C   0  0  0  0  0  0  0  0  0  0  0  0
   19.4670  -33.8620   35.0170 C   0  0  0  0  0  0  0  0  0  0  0  0
   18.9200  -35.0950   35.2390 O   0  0  0  0  0  0  0  0  0  0  0  0
   19.6580  -32.9170   36.0290 C   0  0  0  0  0  0  0  0  0  0  0  0
   19.2790  -33.1870   37.4160 C   0  0  0  0  0  0  0  0  0  0  0  0
   18.7830  -34.2570   37.7590 O   0  0  0  0  0  0  0  0  0  0  0  0
   19.5170  -32.1150   38.4110 C   0  0  0  0  0  0  0  0  0  0  0  0
   19.1680  -32.3840   39.7220 O   0  0  0  0  0  0  0  0  0  0  0  0
   21.5350  -29.7800   39.6600 C   0  0  0  0  0  0  0  0  0  0  0  0
   21.8050  -28.7100   40.5350 C   0  0  0  0  0  0  0  0  0  0  0  0
   23.0450  -28.7300   41.3330 C   0  0  0  0  0  0  0  0  0  0  0  0
   23.7380  -29.8450   41.6000 C   0  0  0  0  0  0  0  0  0  0  0  0
   20.6919  -25.4339   43.3268 H   0  0  0  0  0  0  0  0  0  0  0  0
   19.7210  -27.0539   43.0758 H   0  0  0  0  0  0  0  0  0  0  0  0
   21.8280  -25.7691   41.2318 H   0  0  0  0  0  0  0  0  0  0  0  0
   18.9349  -26.9212   40.0031 H   0  0  0  0  0  0  0  0  0  0  0  0
   18.4969  -28.8150   38.4568 H   0  0  0  0  0  0  0  0  0  0  0  0
   21.0438  -30.4055   34.1838 H   0  0  0  0  0  0  0  0  0  0  0  0
   20.7026  -32.0914   32.3758 H   0  0  0  0  0  0  0  0  0  0  0  0
   19.6907  -34.3104   32.9112 H   0  0  0  0  0  0  0  0  0  0  0  0
   18.0790  -35.3060   34.8850 H   0  0  0  0  0  0  0  0  0  0  0  0
   18.4210  -31.9660   40.1030 H   0  0  0  0  0  0  0  0  0  0  0  0
   22.2650  -30.5982   39.5727 H   0  0  0  0  0  0  0  0  0  0  0  0
   23.4219  -27.7764   41.7312 H   0  0  0  0  0  0  0  0  0  0  0  0
   24.6567  -29.7906   42.2025 H   0  0  0  0  0  0  0  0  0  0  0  0
   23.3883  -30.8150   41.2168 H   0  0  0  0  0  0  0  0  0  0  0  0
  1  2  2  0
  2  3  1  0
  3  4  2  0
  4  5  1  0
  5  6  2  0
  6  7  1  0
  7  8  1  0
  8  9  1  0
  9 10  2  0
 10 11  1  0
 11 12  2  0
 12 13  1  0
 13 14  1  0
 13 15  2  0
 15 16  1  0
 16 17  2  0
 16 18  1  0
 18 19  1  0
  6 20  1  0
 20 21  2  0
 21 22  1  0
 22 23  2  0
 21  3  1  0
 18  7  2  0
 15  9  1  0
  1 24  1  0
  1 25  1  0
  2 26  1  0
  4 27  1  0
  5 28  1  0
 10 29  1  0
 11 30  1  0
 12 31  1  0
 14 32  1  0
 19 33  1  0
 20 34  1  0
 22 35  1  0
 23 36  1  0
 23 37  1  0
M  END
>  <meeko>  (6) 
{"is_sidechain": [false], "free_energy": -8.525, "intermolecular_energy": -10.463, "internal_energy": -0.647}

$$$$
cand_048_out
     RDKit          3D

 37 39  0  0  0  0  0  0  0  0999 V2000
   21.6320  -26.9130   43.0500 C   0  0  0  0  0  0  0  0  0  0  0  0
   21.6730  -26.7750   41.7190 C   0  0  0  0  0  0  0  0  0  0  0  0
   21.2630  -27.8260   40.7700 C   0  0  0  0  0  0  0  0  0  0  0  0
   22.1640  -28.8590   40.4610 C   0  0  0  0  0  0  0  0  0  0  0  0
   21.8000  -29.8960   39.5980 C   0  0  0  0  0  0  0  0  0  0  0  0
   20.5240  -29.9370   39.0280 C   0  0  0  0  0  0  0  0  0  0  0  0
   20.1690  -31.0240   38.0930 C   0  0  0  0  0  0  0  0  0  0  0  0
   20.5210  -30.7430   36.7780 O   0  0  0  0  0  0  0  0  0  0  0  0
   20.2460  -31.6700   35.8050 C   0  0  0  0  0  0  0  0  0  0  0  0
   20.6020  -31.3390   34.4960 C   0  0  0  0  0  0  0  0  0  0  0  0
   20.3520  -32.2390   33.4580 C   0  0  0  0  0  0  0  0  0  0  0  0
   19.7490  -33.4680   33.7280 C   0  0  0  0  0  0  0  0  0  0  0  0
   19.3950  -33.7960   35.0340 C   0  0  0  0  0  0  0  0  0  0  0  0
   18.8090  -35.0160   35.2280 O   0  0  0  0  0  0  0  0  0  0  0  0
   19.6450  -32.8950   36.0730 C   0  0  0  0  0  0  0  0  0  0  0  0
   19.2890  -33.2000   37.4590 C   0  0  0  0  0  0  0  0  0  0  0  0
   18.7620  -34.2640   37.7780 O   0  0  0  0  0  0  0  0  0  0  0  0
   19.5880  -32.1730   38.4850 C   0  0  0  0  0  0  0  0  0  0  0  0
   19.2610  -32.4760   39.7930 O   0  0  0  0  0  0  0  0  0  0  0  0
   19.6230  -28.9070   39.3360 C   0  0  0  0  0  0  0  0  0  0  0  0
   19.9670  -27.8610   40.2150 C   0  0  0  0  0  0  0  0  0  0  0  0
   18.9870  -26.7910   40.4760 C   0  0  0  0  0  0  0  0  0  0  0  0
   18.6920  -25.8230   39.5970 C   0  0  0  0  0  0  0  0  0  0  0  0
   21.9540  -26.0853   43.6989 H   0  0  0  0  0  0  0  0  0  0  0  0
   21.2763  -27.8541   43.4947 H   0  0  0  0  0  0  0  0  0  0  0  0
   22.0342  -25.8203   41.3090 H   0  0  0  0  0  0  0  0  0  0  0  0
   23.1704  -28.8512   40.9049 H   0  0  0  0  0  0  0  0  0  0  0  0
   22.5256  -30.6891   39.3645 H   0  0  0  0  0  0  0  0  0  0  0  0
   21.0786  -30.3708   34.2828 H   0  0  0  0  0  0  0  0  0  0  0  0
   20.6308  -31.9788   32.4262 H   0  0  0  0  0  0  0  0  0  0  0  0
   19.5535  -34.1769   32.9100 H   0  0  0  0  0  0  0  0  0  0  0  0
   18.0810  -35.1000   35.8110 H   0  0  0  0  0  0  0  0  0  0  0  0
   19.8410  -32.9980   40.3120 H   0  0  0  0  0  0  0  0  0  0  0  0
   18.6222  -28.9162   38.8796 H   0  0  0  0  0  0  0  0  0  0  0  0
   18.4689  -26.7868   41.4463 H   0  0  0  0  0  0  0  0  0  0  0  0
   17.9497  -25.0533   39.8550 H   0  0  0  0  0  0  0  0  0  0  0  0
   19.1922  -25.7983   38.6176 H   0  0  0  0  0  0  0  0  0  0  0  0
  1  2  2  0
  2  3  1  0
  3  4  2  0
  4  5  1  0
  5  6  2  0
  6  7  1  0
  7  8  1  0
  8  9  1  0
  9 10  2  0
 10 11  1  0
 11 12  2  0
 12 13  1  0
 13 14  1  0
 13 15  2  0
 15 16  1  0
 16 17  2  0
 16 18  1  0
 18 19  1  0
  6 20  1  0
 20 21  2  0
 21 22  1  0
 22 23  2  0
 21  3  1  0
 18  7  2  0
 15  9  1  0
  1 24  1  0
  1 25  1  0
  2 26  1  0
  4 27  1  0
  5 28  1  0
 10 29  1  0
 11 30  1  0
 12 31  1  0
 14 32  1  0
 19 33  1  0
 20 34  1  0
 22 35  1  0
 23 36  1  0
 23 37  1  0
M  END
>  <meeko>  (7) 
{"is_sidechain": [false], "free_energy": -8.326, "intermolecular_energy": -10.197, "internal_energy": -0.667}

$$$$
cand_048_out
     RDKit          3D

 37 39  0  0  0  0  0  0  0  0999 V2000
   19.1810  -34.1000   37.0750 C   0  0  0  0  0  0  0  0  0  0  0  0
   19.3120  -32.8360   36.6540 C   0  0  0  0  0  0  0  0  0  0  0  0
   19.8220  -31.7380   37.4960 C   0  0  0  0  0  0  0  0  0  0  0  0
   19.7760  -31.8680   38.8940 C   0  0  0  0  0  0  0  0  0  0  0  0
   20.2870  -30.8680   39.7260 C   0  0  0  0  0  0  0  0  0  0  0  0
   20.8670  -29.7160   39.1860 C   0  0  0  0  0  0  0  0  0  0  0  0
   21.3710  -28.6560   40.0830 C   0  0  0  0  0  0  0  0  0  0  0  0
   22.3180  -29.1190   40.9890 O   0  0  0  0  0  0  0  0  0  0  0  0
   22.8680  -28.2360   41.8830 C   0  0  0  0  0  0  0  0  0  0  0  0
   23.8030  -28.7460   42.7850 C   0  0  0  0  0  0  0  0  0  0  0  0
   24.4020  -27.9010   43.7200 C   0  0  0  0  0  0  0  0  0  0  0  0
   24.0690  -26.5460   43.7530 C   0  0  0  0  0  0  0  0  0  0  0  0
   23.1360  -26.0380   42.8530 C   0  0  0  0  0  0  0  0  0  0  0  0
   22.8560  -24.7030   42.9400 O   0  0  0  0  0  0  0  0  0  0  0  0
   22.5350  -26.8850   41.9170 C   0  0  0  0  0  0  0  0  0  0  0  0
   21.5510  -26.3930   40.9530 C   0  0  0  0  0  0  0  0  0  0  0  0
   21.2100  -25.2120   40.9140 O   0  0  0  0  0  0  0  0  0  0  0  0
   20.9670  -27.3740   40.0080 C   0  0  0  0  0  0  0  0  0  0  0  0
   20.0480  -26.8970   39.0930 O   0  0  0  0  0  0  0  0  0  0  0  0
   20.9130  -29.5840   37.7900 C   0  0  0  0  0  0  0  0  0  0  0  0
   20.4170  -30.5880   36.9360 C   0  0  0  0  0  0  0  0  0  0  0  0
   20.4670  -30.3780   35.4770 C   0  0  0  0  0  0  0  0  0  0  0  0
   20.2230  -29.2010   34.8870 C   0  0  0  0  0  0  0  0  0  0  0  0
   18.7930  -34.8698   36.3918 H   0  0  0  0  0  0  0  0  0  0  0  0
   19.4614  -34.3688   38.1041 H   0  0  0  0  0  0  0  0  0  0  0  0
   19.0221  -32.6026   35.6189 H   0  0  0  0  0  0  0  0  0  0  0  0
   19.3314  -32.7698   39.3403 H   0  0  0  0  0  0  0  0  0  0  0  0
   20.2323  -30.9886   40.8180 H   0  0  0  0  0  0  0  0  0  0  0  0
   24.0675  -29.8134   42.7588 H   0  0  0  0  0  0  0  0  0  0  0  0
   25.1376  -28.3033   44.4320 H   0  0  0  0  0  0  0  0  0  0  0  0
   24.5431  -25.8802   44.4892 H   0  0  0  0  0  0  0  0  0  0  0  0
   23.3850  -24.1470   43.4770 H   0  0  0  0  0  0  0  0  0  0  0  0
   19.4800  -26.1890   39.3250 H   0  0  0  0  0  0  0  0  0  0  0  0
   21.3474  -28.6735   37.3515 H   0  0  0  0  0  0  0  0  0  0  0  0
   20.7190  -31.2368   34.8374 H   0  0  0  0  0  0  0  0  0  0  0  0
   20.2774  -29.1130   33.7919 H   0  0  0  0  0  0  0  0  0  0  0  0
   19.9682  -28.3221   35.4974 H   0  0  0  0  0  0  0  0  0  0  0  0
  1  2  2  0
  2  3  1  0
  3  4  2  0
  4  5  1  0
  5  6  2  0
  6  7  1  0
  7  8  1  0
  8  9  1  0
  9 10  2  0
 10 11  1  0
 11 12  2  0
 12 13  1  0
 13 14  1  0
 13 15  2  0
 15 16  1  0
 16 17  2  0
 16 18  1  0
 18 19  1  0
  6 20  1  0
 20 21  2  0
 21 22  1  0
 22 23  2  0
 21  3  1  0
 18  7  2  0
 15  9  1  0
  1 24  1  0
  1 25  1  0
  2 26  1  0
  4 27  1  0
  5 28  1  0
 10 29  1  0
 11 30  1  0
 12 31  1  0
 14 32  1  0
 19 33  1  0
 20 34  1  0
 22 35  1  0
 23 36  1  0
 23 37  1  0
M  END
>  <meeko>  (8) 
{"is_sidechain": [false], "free_energy": -8.048, "intermolecular_energy": -10.113, "internal_energy": -0.408}

$$$$
cand_048_out
     RDKit          3D

 37 39  0  0  0  0  0  0  0  0999 V2000
   20.4360  -24.2420   41.3750 C   0  0  0  0  0  0  0  0  0  0  0  0
   19.8950  -25.3780   41.8300 C   0  0  0  0  0  0  0  0  0  0  0  0
   19.8580  -26.6360   41.0620 C   0  0  0  0  0  0  0  0  0  0  0  0
   18.8090  -26.8550   40.1540 C   0  0  0  0  0  0  0  0  0  0  0  0
   18.7600  -28.0160   39.3780 C   0  0  0  0  0  0  0  0  0  0  0  0
   19.7630  -28.9850   39.4780 C   0  0  0  0  0  0  0  0  0  0  0  0
   19.6760  -30.2210   38.6730 C   0  0  0  0  0  0  0  0  0  0  0  0
   19.1730  -31.3000   39.3900 O   0  0  0  0  0  0  0  0  0  0  0  0
   19.0410  -32.5120   38.7600 C   0  0  0  0  0  0  0  0  0  0  0  0
   18.5470  -33.5710   39.5220 C   0  0  0  0  0  0  0  0  0  0  0  0
   18.3870  -34.8310   38.9420 C   0  0  0  0  0  0  0  0  0  0  0  0
   18.7180  -35.0310   37.6010 C   0  0  0  0  0  0  0  0  0  0  0  0
   19.2100  -33.9720   36.8420 C   0  0  0  0  0  0  0  0  0  0  0  0
   19.5140  -34.2370   35.5360 O   0  0  0  0  0  0  0  0  0  0  0  0
   19.3720  -32.7110   37.4240 C   0  0  0  0  0  0  0  0  0  0  0  0
   19.8860  -31.5720   36.6630 C   0  0  0  0  0  0  0  0  0  0  0  0
   20.1930  -31.6660   35.4760 O   0  0  0  0  0  0  0  0  0  0  0  0
   20.0270  -30.2800   37.3750 C   0  0  0  0  0  0  0  0  0  0  0  0
   20.5000  -29.2070   36.6440 O   0  0  0  0  0  0  0  0  0  0  0  0
   20.8120  -28.7690   40.3850 C   0  0  0  0  0  0  0  0  0  0  0  0
   20.8850  -27.5980   41.1640 C   0  0  0  0  0  0  0  0  0  0  0  0
   21.9970  -27.4420   42.1210 C   0  0  0  0  0  0  0  0  0  0  0  0
   23.1160  -28.1760   42.0860 C   0  0  0  0  0  0  0  0  0  0  0  0
   20.4286  -23.3391   42.0032 H   0  0  0  0  0  0  0  0  0  0  0  0
   20.8882  -24.2110   40.3727 H   0  0  0  0  0  0  0  0  0  0  0  0
   19.4516  -25.3731   42.8367 H   0  0  0  0  0  0  0  0  0  0  0  0
   18.0142  -26.1013   40.0523 H   0  0  0  0  0  0  0  0  0  0  0  0
   17.9231  -28.1693   38.6808 H   0  0  0  0  0  0  0  0  0  0  0  0
   18.2839  -33.4136   40.5784 H   0  0  0  0  0  0  0  0  0  0  0  0
   17.9996  -35.6671   39.5428 H   0  0  0  0  0  0  0  0  0  0  0  0
   18.5905  -36.0235   37.1443 H   0  0  0  0  0  0  0  0  0  0  0  0
   20.1820  -34.8600   35.3260 H   0  0  0  0  0  0  0  0  0  0  0  0
   21.1880  -29.3320   36.0210 H   0  0  0  0  0  0  0  0  0  0  0  0
   21.5964  -29.5330   40.4900 H   0  0  0  0  0  0  0  0  0  0  0  0
   21.9012  -26.6793   42.9079 H   0  0  0  0  0  0  0  0  0  0  0  0
   23.9076  -28.0079   42.8311 H   0  0  0  0  0  0  0  0  0  0  0  0
   23.2439  -28.9472   41.3121 H   0  0  0  0  0  0  0  0  0  0  0  0
  1  2  2  0
  2  3  1  0
  3  4  2  0
  4  5  1  0
  5  6  2  0
  6  7  1  0
  7  8  1  0
  8  9  1  0
  9 10  2  0
 10 11  1  0
 11 12  2  0
 12 13  1  0
 13 14  1  0
 13 15  2  0
 15 16  1  0
 16 17  2  0
 16 18  1  0
 18 19  1  0
  6 20  1  0
 20 21  2  0
 21 22  1  0
 22 23  2  0
 21  3  1  0
 18  7  2  0
 15  9  1  0
  1 24  1  0
  1 25  1  0
  2 26  1  0
  4 27  1  0
  5 28  1  0
 10 29  1  0
 11 30  1  0
 12 31  1  0
 14 32  1  0
 19 33  1  0
 20 34  1  0
 22 35  1  0
 23 36  1  0
 23 37  1  0
M  END
>  <meeko>  (9) 
{"is_sidechain": [false], "free_energy": -8.009, "intermolecular_energy": -9.867, "internal_energy": -0.606}

$$$$
