cand_037_out
     RDKit          3D

 35 37  0  0  0  0  0  0  0  0999 V2000
   21.3870  -26.0890   42.2570 C   0  0  0  0  0  0  0  0  0  0  0  0
   22.0410  -27.3810   41.8500 C   0  0  0  0  0  0  0  0  0  0  0  0
   21.4660  -28.1390   40.8130 C   0  0  0  0  0  0  0  0  0  0  0  0
   22.0270  -29.3530   40.3900 C   0  0  0  0  0  0  0  0  0  0  0  0
   21.3790  -30.1280   39.3110 C   0  0  0  0  0  0  0  0  0  0  0  0
   20.5730  -31.1540   39.7910 O   0  0  0  0  0  0  0  0  0  0  0  0
   19.9100  -31.9520   38.8950 C   0  0  0  0  0  0  0  0  0  0  0  0
   19.1230  -32.9790   39.4210 C   0  0  0  0  0  0  0  0  0  0  0  0
   18.4210  -33.8270   38.5630 C   0  0  0  0  0  0  0  0  0  0  0  0
   18.5030  -33.6490   37.1800 C   0  0  0  0  0  0  0  0  0  0  0  0
   19.2870  -32.6240   36.6580 C   0  0  0  0  0  0  0  0  0  0  0  0
   19.3220  -32.5060   35.2950 O   0  0  0  0  0  0  0  0  0  0  0  0
   19.9920  -31.7760   37.5170 C   0  0  0  0  0  0  0  0  0  0  0  0
   20.8280  -30.6870   37.0090 C   0  0  0  0  0  0  0  0  0  0  0  0
   20.9450  -30.4620   35.8080 O   0  0  0  0  0  0  0  0  0  0  0  0
   21.5390  -29.8490   38.0040 C   0  0  0  0  0  0  0  0  0  0  0  0
   22.3150  -28.8150   37.5140 O   0  0  0  0  0  0  0  0  0  0  0  0
   23.1740  -29.8170   41.0420 C   0  0  0  0  0  0  0  0  0  0  0  0
   23.7510  -29.0820   42.0810 C   0  0  0  0  0  0  0  0  0  0  0  0
   23.1900  -27.8670   42.5050 C   0  0  0  0  0  0  0  0  0  0  0  0
   23.8590  -27.1000   43.6170 C   0  0  0  0  0  0  0  0  0  0  0  0
   24.6400  -26.0740   43.1740 F   0  0  0  0  0  0  0  0  0  0  0  0
   21.3543  -26.0244   43.3546 H   0  0  0  0  0  0  0  0  0  0  0  0
   21.9655  -25.2432   41.8570 H   0  0  0  0  0  0  0  0  0  0  0  0
   20.3629  -26.0545   41.8570 H   0  0  0  0  0  0  0  0  0  0  0  0
   20.5535  -27.7701   40.3218 H   0  0  0  0  0  0  0  0  0  0  0  0
   19.0565  -33.1193   40.5100 H   0  0  0  0  0  0  0  0  0  0  0  0
   17.8021  -34.6369   38.9766 H   0  0  0  0  0  0  0  0  0  0  0  0
   17.9491  -34.3176   36.5046 H   0  0  0  0  0  0  0  0  0  0  0  0
   20.0650  -32.8180   34.8170 H   0  0  0  0  0  0  0  0  0  0  0  0
   21.9320  -27.9720   37.3660 H   0  0  0  0  0  0  0  0  0  0  0  0
   23.6268  -30.7708   40.7336 H   0  0  0  0  0  0  0  0  0  0  0  0
   24.6583  -29.4611   42.5740 H   0  0  0  0  0  0  0  0  0  0  0  0
   23.0792  -26.6863   44.2733 H   0  0  0  0  0  0  0  0  0  0  0  0
   24.5178  -27.8042   44.1463 H   0  0  0  0  0  0  0  0  0  0  0  0
  1  2  1  0
  2  3  2  0
  3  4  1  0
  4  5  1  0
  5  6  1  0
  6  7  1  0
  7  8  2  0
  8  9  1  0
  9 10  2  0
 10 11  1  0
 11 12  1  0
 11 13  2  0
 13 14  1  0
 14 15  2  0
 14 16  1  0
 16 17  1  0
  4 18  2  0
 18 19  1  0
 19 20  2  0
 20 21  1  0
 21 22  1  0
 20  2  1  0
 16  5  2  0
 13  7  1  0
  1 23  1  0
  1 24  1  0
  1 25  1  0
  3 26  1  0
  8 27  1  0
  9 28  1  0
 10 29  1  0
 12 30  1  0
 17 31  1  0
 18 32  1  0
 19 33  1  0
 21 34  1  0
 21 35  1  0
M  END
>  <meeko>  (1) 
{"is_sidechain": [false], "free_energy": -9.055, "intermolecular_energy": -10.643, "internal_energy": -0.432}

$$$$
cand_037_out
     RDKit          3D

 35 37  0  0  0  0  0  0  0  0999 V2000
   19.5540  -26.7210   41.2450 C   0  0  0  0  0  0  0  0  0  0  0  0
   20.5340  -27.7690   40.7930 C   0  0  0  0  0  0  0  0  0  0  0  0
   20.1090  -28.7510   39.8790 C   0  0  0  0  0  0  0  0  0  0  0  0
   20.9740  -29.7560   39.4220 C   0  0  0  0  0  0  0  0  0  0  0  0
   20.4800  -30.7800   38.4760 C   0  0  0  0  0  0  0  0  0  0  0  0
   20.0230  -31.9280   39.1130 O   0  0  0  0  0  0  0  0  0  0  0  0
   19.5360  -32.9600   38.3530 C   0  0  0  0  0  0  0  0  0  0  0  0
   19.1010  -34.0990   39.0330 C   0  0  0  0  0  0  0  0  0  0  0  0
   18.5920  -35.1840   38.3180 C   0  0  0  0  0  0  0  0  0  0  0  0
   18.5160  -35.1320   36.9250 C   0  0  0  0  0  0  0  0  0  0  0  0
   18.9490  -33.9950   36.2480 C   0  0  0  0  0  0  0  0  0  0  0  0
   18.8460  -34.0100   34.8840 O   0  0  0  0  0  0  0  0  0  0  0  0
   19.4600  -32.9090   36.9640 C   0  0  0  0  0  0  0  0  0  0  0  0
   19.9270  -31.6940   36.2930 C   0  0  0  0  0  0  0  0  0  0  0  0
   19.8860  -31.5690   35.0710 O   0  0  0  0  0  0  0  0  0  0  0  0
   20.4580  -30.6020   37.1420 C   0  0  0  0  0  0  0  0  0  0  0  0
   20.8820  -29.4550   36.4990 O   0  0  0  0  0  0  0  0  0  0  0  0
   22.2820  -29.7810   39.9160 C   0  0  0  0  0  0  0  0  0  0  0  0
   22.7170  -28.8210   40.8330 C   0  0  0  0  0  0  0  0  0  0  0  0
   21.8510  -27.8150   41.2910 C   0  0  0  0  0  0  0  0  0  0  0  0
   22.3710  -26.7890   42.2670 C   0  0  0  0  0  0  0  0  0  0  0  0
   23.6350  -27.0510   42.7060 F   0  0  0  0  0  0  0  0  0  0  0  0
   19.5280  -26.6932   42.3443 H   0  0  0  0  0  0  0  0  0  0  0  0
   19.8647  -25.7383   40.8606 H   0  0  0  0  0  0  0  0  0  0  0  0
   18.5527  -26.9652   40.8606 H   0  0  0  0  0  0  0  0  0  0  0  0
   19.0717  -28.7298   39.5136 H   0  0  0  0  0  0  0  0  0  0  0  0
   19.1594  -34.1412   40.1306 H   0  0  0  0  0  0  0  0  0  0  0  0
   18.2499  -36.0821   38.8532 H   0  0  0  0  0  0  0  0  0  0  0  0
   18.1146  -35.9882   36.3630 H   0  0  0  0  0  0  0  0  0  0  0  0
   18.0440  -34.2720   34.4780 H   0  0  0  0  0  0  0  0  0  0  0  0
   20.4350  -29.1560   35.7320 H   0  0  0  0  0  0  0  0  0  0  0  0
   22.9759  -30.5651   39.5789 H   0  0  0  0  0  0  0  0  0  0  0  0
   23.7529  -28.8537   41.2016 H   0  0  0  0  0  0  0  0  0  0  0  0
   22.3702  -25.8061   41.7731 H   0  0  0  0  0  0  0  0  0  0  0  0
   21.7104  -26.8131   43.1462 H   0  0  0  0  0  0  0  0  0  0  0  0
  1  2  1  0
  2  3  2  0
  3  4  1  0
  4  5  1  0
  5  6  1  0
  6  7  1  0
  7  8  2  0
  8  9  1  0
  9 10  2  0
 10 11  1  0
 11 12  1  0
 11 13  2  0
 13 14  1  0
 14 15  2  0
 14 16  1  0
 16 17  1  0
  4 18  2  0
 18 19  1  0
 19 20  2  0
 20 21  1  0
 21 22  1  0
 20  2  1  0
 16  5  2  0
 13  7  1  0
  1 23  1  0
  1 24  1  0
  1 25  1  0
  3 26  1  0
  8 27  1  0
  9 28  1  0
 10 29  1  0
 12 30  1  0
 17 31  1  0
 18 32  1  0
 19 33  1  0
 21 34  1  0
 21 35  1  0
M  END
>  <meeko>  (2) 
{"is_sidechain": [false], "free_energy": -9.001, "intermolecular_energy": -10.61, "internal_energy": -0.402}

$$$$
cand_037_out
     RDKit          3D

 35 37  0  0  0  0  0  0  0  0999 V2000
   19.1220  -32.6290   39.2960 C   0  0  0  0  0  0  0  0  0  0  0  0
   19.9240  -31.4700   38.7690 C   0  0  0  0  0  0  0  0  0  0  0  0
   20.4030  -30.5050   39.6740 C   0  0  0  0  0  0  0  0  0  0  0  0
   21.1530  -29.4010   39.2450 C   0  0  0  0  0  0  0  0  0  0  0  0
   21.6200  -28.3990   40.2270 C   0  0  0  0  0  0  0  0  0  0  0  0
   22.5110  -28.9270   41.1550 O   0  0  0  0  0  0  0  0  0  0  0  0
   23.0230  -28.1050   42.1250 C   0  0  0  0  0  0  0  0  0  0  0  0
   23.9030  -28.6800   43.0450 C   0  0  0  0  0  0  0  0  0  0  0  0
   24.4610  -27.8970   44.0560 C   0  0  0  0  0  0  0  0  0  0  0  0
   24.1430  -26.5410   44.1500 C   0  0  0  0  0  0  0  0  0  0  0  0
   23.2670  -25.9690   43.2320 C   0  0  0  0  0  0  0  0  0  0  0  0
   22.9980  -24.6360   43.3810 O   0  0  0  0  0  0  0  0  0  0  0  0
   22.7060  -26.7530   42.2190 C   0  0  0  0  0  0  0  0  0  0  0  0
   21.7800  -26.1920   41.2340 C   0  0  0  0  0  0  0  0  0  0  0  0
   21.4560  -25.0070   41.2460 O   0  0  0  0  0  0  0  0  0  0  0  0
   21.2350  -27.1090   40.2060 C   0  0  0  0  0  0  0  0  0  0  0  0
   20.3730  -26.5660   39.2720 O   0  0  0  0  0  0  0  0  0  0  0  0
   21.4030  -29.2600   37.8760 C   0  0  0  0  0  0  0  0  0  0  0  0
   20.9250  -30.2030   36.9630 C   0  0  0  0  0  0  0  0  0  0  0  0
   20.1740  -31.3080   37.3920 C   0  0  0  0  0  0  0  0  0  0  0  0
   19.6960  -32.3100   36.3710 C   0  0  0  0  0  0  0  0  0  0  0  0
   20.2750  -32.1550   35.1470 F   0  0  0  0  0  0  0  0  0  0  0  0
   19.1333  -32.6127   40.3958 H   0  0  0  0  0  0  0  0  0  0  0  0
   18.0847  -32.5497   38.9387 H   0  0  0  0  0  0  0  0  0  0  0  0
   19.5618  -33.5718   38.9387 H   0  0  0  0  0  0  0  0  0  0  0  0
   20.1833  -30.6198   40.7457 H   0  0  0  0  0  0  0  0  0  0  0  0
   24.1555  -29.7482   42.9725 H   0  0  0  0  0  0  0  0  0  0  0  0
   25.1535  -28.3495   44.7811 H   0  0  0  0  0  0  0  0  0  0  0  0
   24.5839  -25.9257   44.9481 H   0  0  0  0  0  0  0  0  0  0  0  0
   23.3870  -24.0120   42.8000 H   0  0  0  0  0  0  0  0  0  0  0  0
   19.7380  -27.1110   38.8480 H   0  0  0  0  0  0  0  0  0  0  0  0
   21.9821  -28.3975   37.5146 H   0  0  0  0  0  0  0  0  0  0  0  0
   21.1405  -30.0775   35.8917 H   0  0  0  0  0  0  0  0  0  0  0  0
   19.9262  -33.3204   36.7400 H   0  0  0  0  0  0  0  0  0  0  0  0
   18.6154  -32.1504   36.2412 H   0  0  0  0  0  0  0  0  0  0  0  0
  1  2  1  0
  2  3  2  0
  3  4  1  0
  4  5  1  0
  5  6  1  0
  6  7  1  0
  7  8  2  0
  8  9  1  0
  9 10  2  0
 10 11  1  0
 11 12  1  0
 11 13  2  0
 13 14  1  0
 14 15  2  0
 14 16  1  0
 16 17  1  0
  4 18  2  0
 18 19  1  0
 19 20  2  0
 20 21  1  0
 21 22  1  0
 20  2  1  0
 16  5  2  0
 13  7  1  0
  1 23  1  0
  1 24  1  0
  1 25  1  0
  3 26  1  0
  8 27  1  0
  9 28  1  0
 10 29  1  0
 12 30  1  0
 17 31  1  0
 18 32  1  0
 19 33  1  0
 21 34  1  0
 21 35  1  0
M  END
>  <meeko>  (3) 
{"is_sidechain": [false], "free_energy": -8.512, "intermolecular_energy": -10.179, "internal_energy": -0.258}

$$$$
cand_037_out
     RDKit          3D

 35 37  0  0  0  0  0  0  0  0999 V2000
   22.6900  -28.6110   41.2050 C   0  0  0  0  0  0  0  0  0  0  0  0
   21.3890  -28.6780   40.4520 C   0  0  0  0  0  0  0  0  0  0  0  0
   21.1520  -29.7710   39.5970 C   0  0  0  0  0  0  0  0  0  0  0  0
   19.9610  -29.8890   38.8660 C   0  0  0  0  0  0  0  0  0  0  0  0
   19.7610  -31.0430   37.9640 C   0  0  0  0  0  0  0  0  0  0  0  0
   20.1830  -30.7920   36.6630 O   0  0  0  0  0  0  0  0  0  0  0  0
   20.0560  -31.7800   35.7220 C   0  0  0  0  0  0  0  0  0  0  0  0
   20.4790  -31.4800   34.4250 C   0  0  0  0  0  0  0  0  0  0  0  0
   20.3790  -32.4430   33.4200 C   0  0  0  0  0  0  0  0  0  0  0  0
   19.8560  -33.7050   33.7080 C   0  0  0  0  0  0  0  0  0  0  0  0
   19.4350  -34.0030   35.0010 C   0  0  0  0  0  0  0  0  0  0  0  0
   18.9350  -35.2580   35.2150 O   0  0  0  0  0  0  0  0  0  0  0  0
   19.5350  -33.0390   36.0080 C   0  0  0  0  0  0  0  0  0  0  0  0
   19.1040  -33.3100   37.3810 C   0  0  0  0  0  0  0  0  0  0  0  0
   18.6410  -34.3980   37.7140 O   0  0  0  0  0  0  0  0  0  0  0  0
   19.2440  -32.2170   38.3720 C   0  0  0  0  0  0  0  0  0  0  0  0
   18.8470  -32.4890   39.6680 O   0  0  0  0  0  0  0  0  0  0  0  0
   19.0060  -28.8740   38.9840 C   0  0  0  0  0  0  0  0  0  0  0  0
   19.2300  -27.7770   39.8200 C   0  0  0  0  0  0  0  0  0  0  0  0
   20.4230  -27.6580   40.5520 C   0  0  0  0  0  0  0  0  0  0  0  0
   20.6120  -26.4650   41.4550 C   0  0  0  0  0  0  0  0  0  0  0  0
   20.3000  -26.7170   42.7580 F   0  0  0  0  0  0  0  0  0  0  0  0
   22.4887  -28.6214   42.2864 H   0  0  0  0  0  0  0  0  0  0  0  0
   23.3124  -29.4783   40.9396 H   0  0  0  0  0  0  0  0  0  0  0  0
   23.2200  -27.6844   40.9396 H   0  0  0  0  0  0  0  0  0  0  0  0
   21.9203  -30.5522   39.4998 H   0  0  0  0  0  0  0  0  0  0  0  0
   20.8904  -30.4859   34.1961 H   0  0  0  0  0  0  0  0  0  0  0  0
   20.7129  -32.2073   32.3988 H   0  0  0  0  0  0  0  0  0  0  0  0
   19.7767  -34.4627   32.9145 H   0  0  0  0  0  0  0  0  0  0  0  0
   19.2990  -35.8000   35.8860 H   0  0  0  0  0  0  0  0  0  0  0  0
   18.9950  -33.3390   40.0340 H   0  0  0  0  0  0  0  0  0  0  0  0
   18.0684  -28.9400   38.4125 H   0  0  0  0  0  0  0  0  0  0  0  0
   18.4610  -26.9952   39.9062 H   0  0  0  0  0  0  0  0  0  0  0  0
   21.6652  -26.1518   41.4030 H   0  0  0  0  0  0  0  0  0  0  0  0
   19.9267  -25.6798   41.1032 H   0  0  0  0  0  0  0  0  0  0  0  0
  1  2  1  0
  2  3  2  0
  3  4  1  0
  4  5  1  0
  5  6  1  0
  6  7  1  0
  7  8  2  0
  8  9  1  0
  9 10  2  0
 10 11  1  0
 11 12  1  0
 11 13  2  0
 13 14  1  0
 14 15  2  0
 14 16  1  0
 16 17  1  0
  4 18  2  0
 18 19  1  0
 19 20  2  0
 20 21  1  0
 21 22  1  0
 20  2  1  0
 16  5  2  0
 13  7  1  0
  1 23  1  0
  1 24  1  0
  1 25  1  0
  3 26  1  0
  8 27  1  0
  9 28  1  0
 10 29  1  0
 12 30  1  0
 17 31  1  0
 18 32  1  0
 19 33  1  0
 21 34  1  0
 21 35  1  0
M  END
>  <meeko>  (4) 
{"is_sidechain": [false], "free_energy": -8.442, "intermolecular_energy": -9.908, "internal_energy": -0.446}

$$$$
cand_037_out
     RDKit          3D

 35 37  0  0  0  0  0  0  0  0999 V2000
   19.5560  -32.3130   38.7000 C   0  0  0  0  0  0  0  0  0  0  0  0
   20.3990  -31.0740   38.5720 C   0  0  0  0  0  0  0  0  0  0  0  0
   20.8480  -30.4300   39.7410 C   0  0  0  0  0  0  0  0  0  0  0  0
   21.6340  -29.2700   39.6870 C   0  0  0  0  0  0  0  0  0  0  0  0
   22.0670  -28.6150   40.9400 C   0  0  0  0  0  0  0  0  0  0  0  0
   21.2530  -27.5470   41.3000 O   0  0  0  0  0  0  0  0  0  0  0  0
   21.5420  -26.8490   42.4450 C   0  0  0  0  0  0  0  0  0  0  0  0
   20.7060  -25.7760   42.7610 C   0  0  0  0  0  0  0  0  0  0  0  0
   20.9440  -25.0250   43.9140 C   0  0  0  0  0  0  0  0  0  0  0  0
   22.0150  -25.3460   44.7510 C   0  0  0  0  0  0  0  0  0  0  0  0
   22.8460  -26.4180   44.4340 C   0  0  0  0  0  0  0  0  0  0  0  0
   23.8750  -26.6780   45.2970 O   0  0  0  0  0  0  0  0  0  0  0  0
   22.6090  -27.1690   43.2790 C   0  0  0  0  0  0  0  0  0  0  0  0
   23.4580  -28.3020   42.9090 C   0  0  0  0  0  0  0  0  0  0  0  0
   24.4140  -28.6510   43.5970 O   0  0  0  0  0  0  0  0  0  0  0  0
   23.1260  -29.0280   41.6610 C   0  0  0  0  0  0  0  0  0  0  0  0
   23.9260  -30.1060   41.3280 O   0  0  0  0  0  0  0  0  0  0  0  0
   21.9510  -28.7410   38.4320 C   0  0  0  0  0  0  0  0  0  0  0  0
   21.5040  -29.3610   37.2620 C   0  0  0  0  0  0  0  0  0  0  0  0
   20.7170  -30.5210   37.3150 C   0  0  0  0  0  0  0  0  0  0  0  0
   20.2740  -31.1650   36.0260 C   0  0  0  0  0  0  0  0  0  0  0  0
   21.1520  -30.9820   34.9990 F   0  0  0  0  0  0  0  0  0  0  0  0
   19.4001  -32.5421   39.7645 H   0  0  0  0  0  0  0  0  0  0  0  0
   18.5831  -32.1463   38.2145 H   0  0  0  0  0  0  0  0  0  0  0  0
   20.0682  -33.1568   38.2145 H   0  0  0  0  0  0  0  0  0  0  0  0
   20.5752  -30.8475   40.7215 H   0  0  0  0  0  0  0  0  0  0  0  0
   19.8617  -25.5229   42.1030 H   0  0  0  0  0  0  0  0  0  0  0  0
   20.2867  -24.1790   44.1635 H   0  0  0  0  0  0  0  0  0  0  0  0
   22.2019  -24.7535   45.6587 H   0  0  0  0  0  0  0  0  0  0  0  0
   24.1120  -27.5630   45.4900 H   0  0  0  0  0  0  0  0  0  0  0  0
   24.3080  -30.1590   40.4740 H   0  0  0  0  0  0  0  0  0  0  0  0
   22.5589  -27.8267   38.3649 H   0  0  0  0  0  0  0  0  0  0  0  0
   21.7733  -28.9331   36.2851 H   0  0  0  0  0  0  0  0  0  0  0  0
   20.1587  -32.2454   36.1977 H   0  0  0  0  0  0  0  0  0  0  0  0
   19.3276  -30.6870   35.7329 H   0  0  0  0  0  0  0  0  0  0  0  0
  1  2  1  0
  2  3  2  0
  3  4  1  0
  4  5  1  0
  5  6  1  0
  6  7  1  0
  7  8  2  0
  8  9  1  0
  9 10  2  0
 10 11  1  0
 11 12  1  0
 11 13  2  0
 13 14  1  0
 14 15  2  0
 14 16  1  0
 16 17  1  0
  4 18  2  0
 18 19  1  0
 19 20  2  0
 20 21  1  0
 21 22  1  0
 20  2  1  0
 16  5  2  0
 13  7  1  0
  1 23  1  0
  1 24  1  0
  1 25  1  0
  3 26  1  0
  8 27  1  0
  9 28  1  0
 10 29  1  0
 12 30  1  0
 17 31  1  0
 18 32  1  0
 19 33  1  0
 21 34  1  0
 21 35  1  0
M  END
>  <meeko>  (5) 
{"is_sidechain": [false], "free_energy": -8.308, "intermolecular_energy": -9.802, "internal_energy": -0.394}

$$$$
cand_037_out
     RDKit          3D

 35 37  0  0  0  0  0  0  0  0999 V2000
   24.2750  -27.3420   43.8320 C   0  0  0  0  0  0  0  0  0  0  0  0
   22.9360  -27.0940   43.1920 C   0  0  0  0  0  0  0  0  0  0  0  0
   22.6040  -27.7900   42.0150 C   0  0  0  0  0  0  0  0  0  0  0  0
   21.3730  -27.5990   41.3700 C   0  0  0  0  0  0  0  0  0  0  0  0
   21.0720  -28.3360   40.1240 C   0  0  0  0  0  0  0  0  0  0  0  0
   20.6410  -29.6370   40.3570 O   0  0  0  0  0  0  0  0  0  0  0  0
   20.3260  -30.4340   39.2860 C   0  0  0  0  0  0  0  0  0  0  0  0
   19.9120  -31.7380   39.5660 C   0  0  0  0  0  0  0  0  0  0  0  0
   19.5750  -32.6000   38.5210 C   0  0  0  0  0  0  0  0  0  0  0  0
   19.6510  -32.1600   37.1980 C   0  0  0  0  0  0  0  0  0  0  0  0
   20.0630  -30.8600   36.9210 C   0  0  0  0  0  0  0  0  0  0  0  0
   20.1150  -30.4940   35.6040 O   0  0  0  0  0  0  0  0  0  0  0  0
   20.4020  -29.9970   37.9670 C   0  0  0  0  0  0  0  0  0  0  0  0
   20.8410  -28.6220   37.7210 C   0  0  0  0  0  0  0  0  0  0  0  0
   20.9270  -28.1600   36.5860 O   0  0  0  0  0  0  0  0  0  0  0  0
   21.1840  -27.7910   38.8990 C   0  0  0  0  0  0  0  0  0  0  0  0
   21.5840  -26.4900   38.6550 O   0  0  0  0  0  0  0  0  0  0  0  0
   20.4750  -26.6730   41.9120 C   0  0  0  0  0  0  0  0  0  0  0  0
   20.7950  -25.9650   43.0730 C   0  0  0  0  0  0  0  0  0  0  0  0
   22.0270  -26.1550   43.7190 C   0  0  0  0  0  0  0  0  0  0  0  0
   22.3190  -25.3820   44.9810 C   0  0  0  0  0  0  0  0  0  0  0  0
   21.6200  -24.2160   45.0750 F   0  0  0  0  0  0  0  0  0  0  0  0
   24.1675  -27.3221   44.9266 H   0  0  0  0  0  0  0  0  0  0  0  0
   24.6546  -28.3257   43.5187 H   0  0  0  0  0  0  0  0  0  0  0  0
   24.9817  -26.5595   43.5187 H   0  0  0  0  0  0  0  0  0  0  0  0
   23.3275  -28.5014   41.5902 H   0  0  0  0  0  0  0  0  0  0  0  0
   19.8516  -32.0852   40.6080 H   0  0  0  0  0  0  0  0  0  0  0  0
   19.2491  -33.6275   38.7401 H   0  0  0  0  0  0  0  0  0  0  0  0
   19.3854  -32.8404   36.3755 H   0  0  0  0  0  0  0  0  0  0  0  0
   20.8590  -30.0290   35.2750 H   0  0  0  0  0  0  0  0  0  0  0  0
   22.2000  -26.0750   39.2270 H   0  0  0  0  0  0  0  0  0  0  0  0
   19.5070  -26.5007   41.4188 H   0  0  0  0  0  0  0  0  0  0  0  0
   20.0709  -25.2480   43.4872 H   0  0  0  0  0  0  0  0  0  0  0  0
   22.0617  -26.0134   45.8442 H   0  0  0  0  0  0  0  0  0  0  0  0
   23.3871  -25.1198   44.9616 H   0  0  0  0  0  0  0  0  0  0  0  0
  1  2  1  0
  2  3  2  0
  3  4  1  0
  4  5  1  0
  5  6  1  0
  6  7  1  0
  7  8  2  0
  8  9  1  0
  9 10  2  0
 10 11  1  0
 11 12  1  0
 11 13  2  0
 13 14  1  0
 14 15  2  0
 14 16  1  0
 16 17  1  0
  4 18  2  0
 18 19  1  0
 19 20  2  0
 20 21  1  0
 21 22  1  0
 20  2  1  0
 16  5  2  0
 13  7  1  0
  1 23  1  0
  1 24  1  0
  1 25  1  0
  3 26  1  0
  8 27  1  0
  9 28  1  0
 10 29  1  0
 12 30  1  0
 17 31  1  0
 18 32  1  0
 19 33  1  0
 21 34  1  0
 21 35  1  0
M  END
>  <meeko>  (6) 
{"is_sidechain": [false], "free_energy": -8.109, "intermolecular_energy": -9.582, "internal_energy": -0.381}

$$$$
cand_037_out
     RDKit          3D

 35 37  0  0  0  0  0  0  0  0999 V2000
   20.4360  -31.1050   35.3170 C   0  0  0  0  0  0  0  0  0  0  0  0
   20.2030  -31.0930   36.8030 C   0  0  0  0  0  0  0  0  0  0  0  0
   20.5890  -29.9610   37.5440 C   0  0  0  0  0  0  0  0  0  0  0  0
   20.4020  -29.8900   38.9330 C   0  0  0  0  0  0  0  0  0  0  0  0
   20.8400  -28.6900   39.6760 C   0  0  0  0  0  0  0  0  0  0  0  0
   21.7980  -28.9730   40.6430 O   0  0  0  0  0  0  0  0  0  0  0  0
   22.2930  -27.9470   41.4060 C   0  0  0  0  0  0  0  0  0  0  0  0
   23.2430  -28.2780   42.3750 C   0  0  0  0  0  0  0  0  0  0  0  0
   23.7880  -27.2810   43.1850 C   0  0  0  0  0  0  0  0  0  0  0  0
   23.3870  -25.9530   43.0270 C   0  0  0  0  0  0  0  0  0  0  0  0
   22.4420  -25.6240   42.0590 C   0  0  0  0  0  0  0  0  0  0  0  0
   22.0950  -24.3040   41.9570 O   0  0  0  0  0  0  0  0  0  0  0  0
   21.8940  -26.6230   41.2490 C   0  0  0  0  0  0  0  0  0  0  0  0
   20.8970  -26.3210   40.2210 C   0  0  0  0  0  0  0  0  0  0  0  0
   20.4990  -25.1770   40.0160 O   0  0  0  0  0  0  0  0  0  0  0  0
   20.3740  -27.4530   39.4210 C   0  0  0  0  0  0  0  0  0  0  0  0
   19.4430  -27.1540   38.4430 O   0  0  0  0  0  0  0  0  0  0  0  0
   19.8370  -30.9920   39.5830 C   0  0  0  0  0  0  0  0  0  0  0  0
   19.4580  -32.1280   38.8640 C   0  0  0  0  0  0  0  0  0  0  0  0
   19.6460  -32.2000   37.4740 C   0  0  0  0  0  0  0  0  0  0  0  0
   19.2050  -33.4400   36.7380 C   0  0  0  0  0  0  0  0  0  0  0  0
   17.8620  -33.6640   36.8120 F   0  0  0  0  0  0  0  0  0  0  0  0
   21.5160  -31.1606   35.1156 H   0  0  0  0  0  0  0  0  0  0  0  0
   19.9350  -31.9785   34.8743 H   0  0  0  0  0  0  0  0  0  0  0  0
   20.0274  -30.1846   34.8743 H   0  0  0  0  0  0  0  0  0  0  0  0
   21.0492  -29.1097   37.0211 H   0  0  0  0  0  0  0  0  0  0  0  0
   23.5612  -29.3236   42.4995 H   0  0  0  0  0  0  0  0  0  0  0  0
   24.5349  -27.5418   43.9493 H   0  0  0  0  0  0  0  0  0  0  0  0
   23.8170  -25.1679   43.6663 H   0  0  0  0  0  0  0  0  0  0  0  0
   22.2000  -23.7340   42.6930 H   0  0  0  0  0  0  0  0  0  0  0  0
   19.4610  -27.6110   37.6240 H   0  0  0  0  0  0  0  0  0  0  0  0
   19.6894  -30.9638   40.6727 H   0  0  0  0  0  0  0  0  0  0  0  0
   19.0055  -32.9789   39.3943 H   0  0  0  0  0  0  0  0  0  0  0  0
   19.4832  -33.3346   35.6790 H   0  0  0  0  0  0  0  0  0  0  0  0
   19.7041  -34.2961   37.2154 H   0  0  0  0  0  0  0  0  0  0  0  0
  1  2  1  0
  2  3  2  0
  3  4  1  0
  4  5  1  0
  5  6  1  0
  6  7  1  0
  7  8  2  0
  8  9  1  0
  9 10  2  0
 10 11  1  0
 11 12  1  0
 11 13  2  0
 13 14  1  0
 14 15  2  0
 14 16  1  0
 16 17  1  0
  4 18  2  0
 18 19  1  0
 19 20  2  0
 20 21  1  0
 21 22  1  0
 20  2  1  0
 16  5  2  0
 13  7  1  0
  1 23  1  0
  1 24  1  0
  1 25  1  0
  3 26  1  0
  8 27  1  0
  9 28  1  0
 10 29  1  0
 12 30  1  0
 17 31  1  0
 18 32  1  0
 19 33  1  0
 21 34  1  0
 21 35  1  0
M  END
>  <meeko>  (7) 
{"is_sidechain": [false], "free_energy": -8.068, "intermolecular_energy": -9.674, "internal_energy": -0.241}

$$$$
cand_037_out
     RDKit          3D

 35 37  0  0  0  0  0  0  0  0999 V2000
   20.3600  -29.3840   35.4630 C   0  0  0  0  0  0  0  0  0  0  0  0
   20.4490  -29.8340   36.8950 C   0  0  0  0  0  0  0  0  0  0  0  0
   20.8980  -28.9230   37.8700 C   0  0  0  0  0  0  0  0  0  0  0  0
   21.0060  -29.2840   39.2210 C   0  0  0  0  0  0  0  0  0  0  0  0
   21.5010  -28.3020   40.2090 C   0  0  0  0  0  0  0  0  0  0  0  0
   22.4130  -28.8490   41.1040 O   0  0  0  0  0  0  0  0  0  0  0  0
   22.9530  -28.0450   42.0750 C   0  0  0  0  0  0  0  0  0  0  0  0
   23.8540  -28.6390   42.9620 C   0  0  0  0  0  0  0  0  0  0  0  0
   24.4410  -27.8770   43.9720 C   0  0  0  0  0  0  0  0  0  0  0  0
   24.1300  -26.5210   44.0980 C   0  0  0  0  0  0  0  0  0  0  0  0
   23.2330  -25.9300   43.2120 C   0  0  0  0  0  0  0  0  0  0  0  0
   22.9740  -24.5990   43.3910 O   0  0  0  0  0  0  0  0  0  0  0  0
   22.6430  -26.6940   42.2010 C   0  0  0  0  0  0  0  0  0  0  0  0
   21.6950  -26.1130   41.2500 C   0  0  0  0  0  0  0  0  0  0  0  0
   21.3760  -24.9270   41.2900 O   0  0  0  0  0  0  0  0  0  0  0  0
   21.1210  -27.0100   40.2190 C   0  0  0  0  0  0  0  0  0  0  0  0
   20.2370  -26.4480   39.3180 O   0  0  0  0  0  0  0  0  0  0  0  0
   20.6760  -30.5930   39.5870 C   0  0  0  0  0  0  0  0  0  0  0  0
   20.2390  -31.5130   38.6300 C   0  0  0  0  0  0  0  0  0  0  0  0
   20.1320  -31.1530   37.2780 C   0  0  0  0  0  0  0  0  0  0  0  0
   19.6390  -32.1750   36.2850 C   0  0  0  0  0  0  0  0  0  0  0  0
   19.2720  -33.3560   36.8590 F   0  0  0  0  0  0  0  0  0  0  0  0
   20.1467  -28.3054   35.4302 H   0  0  0  0  0  0  0  0  0  0  0  0
   21.3152  -29.5845   34.9556 H   0  0  0  0  0  0  0  0  0  0  0  0
   19.5530  -29.9330   34.9556 H   0  0  0  0  0  0  0  0  0  0  0  0
   21.1710  -27.9022   37.5645 H   0  0  0  0  0  0  0  0  0  0  0  0
   24.1003  -29.7066   42.8640 H   0  0  0  0  0  0  0  0  0  0  0  0
   25.1502  -28.3447   44.6707 H   0  0  0  0  0  0  0  0  0  0  0  0
   24.5928  -25.9213   44.8956 H   0  0  0  0  0  0  0  0  0  0  0  0
   22.6030  -24.2980   44.1970 H   0  0  0  0  0  0  0  0  0  0  0  0
   20.4610  -26.4010   38.4090 H   0  0  0  0  0  0  0  0  0  0  0  0
   20.7613  -30.9017   40.6394 H   0  0  0  0  0  0  0  0  0  0  0  0
   19.9750  -32.5345   38.9413 H   0  0  0  0  0  0  0  0  0  0  0  0
   18.7678  -31.7577   35.7589 H   0  0  0  0  0  0  0  0  0  0  0  0
   20.4733  -32.3920   35.6018 H   0  0  0  0  0  0  0  0  0  0  0  0
  1  2  1  0
  2  3  2  0
  3  4  1  0
  4  5  1  0
  5  6  1  0
  6  7  1  0
  7  8  2  0
  8  9  1  0
  9 10  2  0
 10 11  1  0
 11 12  1  0
 11 13  2  0
 13 14  1  0
 14 15  2  0
 14 16  1  0
 16 17  1  0
  4 18  2  0
 18 19  1  0
 19 20  2  0
 20 21  1  0
 21 22  1  0
 20  2  1  0
 16  5  2  0
 13  7  1  0
  1 23  1  0
  1 24  1  0
  1 25  1  0
  3 26  1  0
  8 27  1  0
  9 28  1  0
 10 29  1  0
 12 30  1  0
 17 31  1  0
 18 32  1  0
 19 33  1  0
 21 34  1  0
 21 35  1  0
M  END
>  <meeko>  (8) 
{"is_sidechain": [false], "free_energy": -7.889, "intermolecular_energy": -9.681, "internal_energy": -0.023}

$$$$
cand_037_out
     RDKit          3D

 35 37  0  0  0  0  0  0  0  0999 V2000
   24.2250  -29.4740   42.5000 C   0  0  0  0  0  0  0  0  0  0  0  0
   23.0720  -28.5780   42.1380 C   0  0  0  0  0  0  0  0  0  0  0  0
   22.5820  -28.5970   40.8190 C   0  0  0  0  0  0  0  0  0  0  0  0
   21.5120  -27.7830   40.4190 C   0  0  0  0  0  0  0  0  0  0  0  0
   21.0430  -27.8190   39.0170 C   0  0  0  0  0  0  0  0  0  0  0  0
   21.1090  -29.0900   38.4580 O   0  0  0  0  0  0  0  0  0  0  0  0
   20.7020  -29.2660   37.1600 C   0  0  0  0  0  0  0  0  0  0  0  0
   20.7990  -30.5560   36.6340 C   0  0  0  0  0  0  0  0  0  0  0  0
   20.4010  -30.8040   35.3200 C   0  0  0  0  0  0  0  0  0  0  0  0
   19.9040  -29.7640   34.5310 C   0  0  0  0  0  0  0  0  0  0  0  0
   19.8060  -28.4790   35.0570 C   0  0  0  0  0  0  0  0  0  0  0  0
   19.3110  -27.5080   34.2300 O   0  0  0  0  0  0  0  0  0  0  0  0
   20.2070  -28.2310   36.3730 C   0  0  0  0  0  0  0  0  0  0  0  0
   20.1230  -26.8950   36.9650 C   0  0  0  0  0  0  0  0  0  0  0  0
   19.6900  -25.9310   36.3380 O   0  0  0  0  0  0  0  0  0  0  0  0
   20.5800  -26.7360   38.3660 C   0  0  0  0  0  0  0  0  0  0  0  0
   20.4830  -25.4730   38.9200 O   0  0  0  0  0  0  0  0  0  0  0  0
   20.9440  -26.9220   41.3620 C   0  0  0  0  0  0  0  0  0  0  0  0
   21.4250  -26.8830   42.6740 C   0  0  0  0  0  0  0  0  0  0  0  0
   22.4960  -27.6970   43.0750 C   0  0  0  0  0  0  0  0  0  0  0  0
   22.9690  -27.6330   44.5060 C   0  0  0  0  0  0  0  0  0  0  0  0
   24.0480  -26.8200   44.6840 F   0  0  0  0  0  0  0  0  0  0  0  0
   24.3090  -29.5393   43.5948 H   0  0  0  0  0  0  0  0  0  0  0  0
   24.0534  -30.4781   42.0849 H   0  0  0  0  0  0  0  0  0  0  0  0
   25.1557  -29.0598   42.0849 H   0  0  0  0  0  0  0  0  0  0  0  0
   23.0500  -29.2672   40.0829 H   0  0  0  0  0  0  0  0  0  0  0  0
   21.1889  -31.3759   37.2551 H   0  0  0  0  0  0  0  0  0  0  0  0
   20.4787  -31.8197   34.9049 H   0  0  0  0  0  0  0  0  0  0  0  0
   19.5904  -29.9603   33.4951 H   0  0  0  0  0  0  0  0  0  0  0  0
   19.8130  -27.2190   33.4940 H   0  0  0  0  0  0  0  0  0  0  0  0
   21.0740  -25.2130   39.5980 H   0  0  0  0  0  0  0  0  0  0  0  0
   20.1095  -26.2680   41.0687 H   0  0  0  0  0  0  0  0  0  0  0  0
   20.9574  -26.2046   43.4028 H   0  0  0  0  0  0  0  0  0  0  0  0
   22.1438  -27.2585   45.1295 H   0  0  0  0  0  0  0  0  0  0  0  0
   23.2780  -28.6494   44.7914 H   0  0  0  0  0  0  0  0  0  0  0  0
  1  2  1  0
  2  3  2  0
  3  4  1  0
  4  5  1  0
  5  6  1  0
  6  7  1  0
  7  8  2  0
  8  9  1  0
  9 10  2  0
 10 11  1  0
 11 12  1  0
 11 13  2  0
 13 14  1  0
 14 15  2  0
 14 16  1  0
 16 17  1  0
  4 18  2  0
 18 19  1  0
 19 20  2  0
 20 21  1  0
 21 22  1  0
 20  2  1  0
 16  5  2  0
 13  7  1  0
  1 23  1  0
  1 24  1  0
  1 25  1  0
  3 26  1  0
  8 27  1  0
  9 28  1  0
 10 29  1  0
 12 30  1  0
 17 31  1  0
 18 32  1  0
 19 33  1  0
 21 34  1  0
 21 35  1  0
M  END
>  <meeko>  (9) 
{"is_sidechain": [false], "free_energy": -7.657, "intermolecular_energy": -9.437, "internal_energy": 0.005}

$$$$
