cand_041_out
     RDKit          3D

 47 49  0  0  0  0  0  0  0  0999 V2000
   23.8540  -27.2320   43.5930 C   0  0  0  0  0  0  0  0  0  0  0  0
   23.1600  -27.9510   42.4690 C   0  0  0  0  0  0  0  0  0  0  0  0
   23.7400  -29.1170   41.9480 C   0  0  0  0  0  0  0  0  0  0  0  0
   23.1290  -29.8200   40.9070 C   0  0  0  0  0  0  0  0  0  0  0  0
   21.9240  -29.3770   40.3540 C   0  0  0  0  0  0  0  0  0  0  0  0
   21.2830  -30.1470   39.2670 C   0  0  0  0  0  0  0  0  0  0  0  0
   20.5370  -31.2230   39.7330 O   0  0  0  0  0  0  0  0  0  0  0  0
   19.8890  -32.0240   38.8280 C   0  0  0  0  0  0  0  0  0  0  0  0
   19.1390  -33.0830   39.3410 C   0  0  0  0  0  0  0  0  0  0  0  0
   18.4560  -33.9370   38.4730 C   0  0  0  0  0  0  0  0  0  0  0  0
   18.5240  -33.7330   37.0930 C   0  0  0  0  0  0  0  0  0  0  0  0
   19.2720  -32.6760   36.5840 C   0  0  0  0  0  0  0  0  0  0  0  0
   19.2950  -32.5350   35.2230 O   0  0  0  0  0  0  0  0  0  0  0  0
   19.9550  -31.8210   37.4530 C   0  0  0  0  0  0  0  0  0  0  0  0
   20.7540  -30.6980   36.9590 C   0  0  0  0  0  0  0  0  0  0  0  0
   20.8670  -30.4570   35.7590 O   0  0  0  0  0  0  0  0  0  0  0  0
   21.4320  -29.8460   37.9630 C   0  0  0  0  0  0  0  0  0  0  0  0
   22.1940  -28.7960   37.4840 O   0  0  0  0  0  0  0  0  0  0  0  0
   21.3340  -28.2230   40.8880 C   0  0  0  0  0  0  0  0  0  0  0  0
   21.9340  -27.5020   41.9390 C   0  0  0  0  0  0  0  0  0  0  0  0
   21.2430  -26.2470   42.4350 C   0  0  0  0  0  0  0  0  0  0  0  0
   19.7110  -26.3770   42.3590 C   0  0  0  0  0  0  0  0  0  0  0  0
   19.0690  -25.2900   41.5910 N   0  0  0  0  0  0  0  0  0  0  0  0
   18.5290  -25.7680   40.3160 C   0  0  0  0  0  0  0  0  0  0  0  0
   20.0360  -24.2170   41.3440 C   0  0  0  0  0  0  0  0  0  0  0  0
   23.4849  -27.6144   44.5561 H   0  0  0  0  0  0  0  0  0  0  0  0
   24.9386  -27.4016   43.5225 H   0  0  0  0  0  0  0  0  0  0  0  0
   23.6461  -26.1541   43.5225 H   0  0  0  0  0  0  0  0  0  0  0  0
   24.6897  -29.4831   42.3652 H   0  0  0  0  0  0  0  0  0  0  0  0
   23.6020  -30.7336   40.5175 H   0  0  0  0  0  0  0  0  0  0  0  0
   19.0860  -33.2447   40.4278 H   0  0  0  0  0  0  0  0  0  0  0  0
   17.8636  -34.7715   38.8765 H   0  0  0  0  0  0  0  0  0  0  0  0
   17.9869  -34.4071   36.4095 H   0  0  0  0  0  0  0  0  0  0  0  0
   18.7850  -31.8640   34.8140 H   0  0  0  0  0  0  0  0  0  0  0  0
   22.3300  -28.0350   38.0140 H   0  0  0  0  0  0  0  0  0  0  0  0
   20.3770  -27.8711   40.4754 H   0  0  0  0  0  0  0  0  0  0  0  0
   21.5348  -26.0680   43.4804 H   0  0  0  0  0  0  0  0  0  0  0  0
   21.5498  -25.4082   41.7929 H   0  0  0  0  0  0  0  0  0  0  0  0
   19.4655  -27.3357   41.8789 H   0  0  0  0  0  0  0  0  0  0  0  0
   19.3278  -26.3185   43.3885 H   0  0  0  0  0  0  0  0  0  0  0  0
   18.2890  -24.9370   42.1470 H   0  0  0  0  0  0  0  0  0  0  0  0
   17.7179  -26.4860   40.5074 H   0  0  0  0  0  0  0  0  0  0  0  0
   18.1365  -24.9160   39.7416 H   0  0  0  0  0  0  0  0  0  0  0  0
   19.3271  -26.2610   39.7416 H   0  0  0  0  0  0  0  0  0  0  0  0
   20.3950  -23.8187   42.3045 H   0  0  0  0  0  0  0  0  0  0  0  0
   20.8866  -24.6147   40.7711 H   0  0  0  0  0  0  0  0  0  0  0  0
   19.5523  -23.4122   40.7711 H   0  0  0  0  0  0  0  0  0  0  0  0
  1  2  1  0
  2  3  2  0
  3  4  1  0
  4  5  2  0
  5  6  1  0
  6  7  1  0
  7  8  1  0
  8  9  2  0
  9 10  1  0
 10 11  2  0
 11 12  1  0
 12 13  1  0
 12 14  2  0
 14 15  1  0
 15 16  2  0
 15 17  1  0
 17 18  1  0
  5 19  1  0
 19 20  2  0
 20 21  1  0
 21 22  1  0
 22 23  1  0
 23 24  1  0
 23 25  1  0
 20  2  1  0
 17  6  2  0
 14  8  1  0
  1 26  1  0
  1 27  1  0
  1 28  1  0
  3 29  1  0
  4 30  1  0
  9 31  1  0
 10 32  1  0
 11 33  1  0
 13 34  1  0
 18 35  1  0
 19 36  1  0
 21 37  1  0
 21 38  1  0
 22 39  1  0
 22 40  1  0
 23 41  1  0
 24 42  1  0
 24 43  1  0
 24 44  1  0
 25 45  1  0
 25 46  1  0
 25 47  1  0
M  CHG  1  23   1
M  END
>  <meeko>  (1) 
{"is_sidechain": [false], "free_energy": -8.891, "intermolecular_energy": -11.49, "internal_energy": -0.702}

$$$$
cand_041_out
     RDKit          3D

 47 49  0  0  0  0  0  0  0  0999 V2000
   23.7870  -26.6460   43.4920 C   0  0  0  0  0  0  0  0  0  0  0  0
   23.1110  -27.4600   42.4220 C   0  0  0  0  0  0  0  0  0  0  0  0
   23.6390  -28.7160   42.0880 C   0  0  0  0  0  0  0  0  0  0  0  0
   23.0420  -29.5090   41.1050 C   0  0  0  0  0  0  0  0  0  0  0  0
   21.9030  -29.0680   40.4250 C   0  0  0  0  0  0  0  0  0  0  0  0
   21.2740  -29.9310   39.4020 C   0  0  0  0  0  0  0  0  0  0  0  0
   20.5190  -30.9600   39.9530 O   0  0  0  0  0  0  0  0  0  0  0  0
   19.8810  -31.8370   39.1140 C   0  0  0  0  0  0  0  0  0  0  0  0
   19.1210  -32.8450   39.7090 C   0  0  0  0  0  0  0  0  0  0  0  0
   18.4470  -33.7720   38.9120 C   0  0  0  0  0  0  0  0  0  0  0  0
   18.5330  -33.6920   37.5210 C   0  0  0  0  0  0  0  0  0  0  0  0
   19.2900  -32.6860   36.9290 C   0  0  0  0  0  0  0  0  0  0  0  0
   19.3320  -32.6660   35.5620 O   0  0  0  0  0  0  0  0  0  0  0  0
   19.9650  -31.7580   37.7270 C   0  0  0  0  0  0  0  0  0  0  0  0
   20.7730  -30.6840   37.1460 C   0  0  0  0  0  0  0  0  0  0  0  0
   20.9020  -30.5510   35.9310 O   0  0  0  0  0  0  0  0  0  0  0  0
   21.4400  -29.7470   38.0790 C   0  0  0  0  0  0  0  0  0  0  0  0
   22.2110  -28.7450   37.5180 O   0  0  0  0  0  0  0  0  0  0  0  0
   21.3630  -27.8210   40.7720 C   0  0  0  0  0  0  0  0  0  0  0  0
   21.9500  -27.0090   41.7630 C   0  0  0  0  0  0  0  0  0  0  0  0
   21.3190  -25.6620   42.0530 C   0  0  0  0  0  0  0  0  0  0  0  0
   20.0600  -25.8030   42.9260 C   0  0  0  0  0  0  0  0  0  0  0  0
   19.2970  -24.5460   43.0630 N   0  0  0  0  0  0  0  0  0  0  0  0
   19.7660  -23.5190   42.1290 C   0  0  0  0  0  0  0  0  0  0  0  0
   19.4050  -24.0460   44.4370 C   0  0  0  0  0  0  0  0  0  0  0  0
   23.4806  -27.0150   44.4819 H   0  0  0  0  0  0  0  0  0  0  0  0
   24.8782  -26.7378   43.3881 H   0  0  0  0  0  0  0  0  0  0  0  0
   23.4963  -25.5902   43.3881 H   0  0  0  0  0  0  0  0  0  0  0  0
   24.5366  -29.0820   42.6080 H   0  0  0  0  0  0  0  0  0  0  0  0
   23.4731  -30.4917   40.8633 H   0  0  0  0  0  0  0  0  0  0  0  0
   19.0531  -32.9090   40.8050 H   0  0  0  0  0  0  0  0  0  0  0  0
   17.8475  -34.5664   39.3806 H   0  0  0  0  0  0  0  0  0  0  0  0
   18.0028  -34.4236   36.8936 H   0  0  0  0  0  0  0  0  0  0  0  0
   18.5600  -32.8580   35.0670 H   0  0  0  0  0  0  0  0  0  0  0  0
   22.0260  -27.8470   37.7130 H   0  0  0  0  0  0  0  0  0  0  0  0
   20.4575  -27.4675   40.2571 H   0  0  0  0  0  0  0  0  0  0  0  0
   22.0501  -25.0313   42.5800 H   0  0  0  0  0  0  0  0  0  0  0  0
   21.0250  -25.2064   41.0959 H   0  0  0  0  0  0  0  0  0  0  0  0
   19.4045  -26.5610   42.4725 H   0  0  0  0  0  0  0  0  0  0  0  0
   20.3943  -26.0912   43.9336 H   0  0  0  0  0  0  0  0  0  0  0  0
   18.3220  -24.7490   42.8400 H   0  0  0  0  0  0  0  0  0  0  0  0
   20.1580  -22.6607   42.6944 H   0  0  0  0  0  0  0  0  0  0  0  0
   20.5630  -23.9358   41.4957 H   0  0  0  0  0  0  0  0  0  0  0  0
   18.9291  -23.1896   41.4957 H   0  0  0  0  0  0  0  0  0  0  0  0
   19.2268  -24.8710   45.1425 H   0  0  0  0  0  0  0  0  0  0  0  0
   20.4125  -23.6356   44.5997 H   0  0  0  0  0  0  0  0  0  0  0  0
   18.6567  -23.2563   44.5997 H   0  0  0  0  0  0  0  0  0  0  0  0
  1  2  1  0
  2  3  2  0
  3  4  1  0
  4  5  2  0
  5  6  1  0
  6  7  1  0
  7  8  1  0
  8  9  2  0
  9 10  1  0
 10 11  2  0
 11 12  1  0
 12 13  1  0
 12 14  2  0
 14 15  1  0
 15 16  2  0
 15 17  1  0
 17 18  1  0
  5 19  1  0
 19 20  2  0
 20 21  1  0
 21 22  1  0
 22 23  1  0
 23 24  1  0
 23 25  1  0
 20  2  1  0
 17  6  2  0
 14  8  1  0
  1 26  1  0
  1 27  1  0
  1 28  1  0
  3 29  1  0
  4 30  1  0
  9 31  1  0
 10 32  1  0
 11 33  1  0
 13 34  1  0
 18 35  1  0
 19 36  1  0
 21 37  1  0
 21 38  1  0
 22 39  1  0
 22 40  1  0
 23 41  1  0
 24 42  1  0
 24 43  1  0
 24 44  1  0
 25 45  1  0
 25 46  1  0
 25 47  1  0
M  CHG  1  23   1
M  END
>  <meeko>  (2) 
{"is_sidechain": [false], "free_energy": -8.742, "intermolecular_energy": -11.467, "internal_energy": -0.532}

$$$$
cand_041_out
     RDKit          3D

 47 49  0  0  0  0  0  0  0  0999 V2000
   20.0550  -30.7470   35.3230 C   0  0  0  0  0  0  0  0  0  0  0  0
   20.6120  -30.3220   36.6540 C   0  0  0  0  0  0  0  0  0  0  0  0
   21.5040  -29.2400   36.7040 C   0  0  0  0  0  0  0  0  0  0  0  0
   22.0420  -28.8070   37.9180 C   0  0  0  0  0  0  0  0  0  0  0  0
   21.7070  -29.4440   39.1160 C   0  0  0  0  0  0  0  0  0  0  0  0
   22.2710  -28.9570   40.3930 C   0  0  0  0  0  0  0  0  0  0  0  0
   23.2040  -29.8300   40.9410 O   0  0  0  0  0  0  0  0  0  0  0  0
   23.8060  -29.5000   42.1270 C   0  0  0  0  0  0  0  0  0  0  0  0
   24.7480  -30.3980   42.6320 C   0  0  0  0  0  0  0  0  0  0  0  0
   25.3970  -30.1230   43.8380 C   0  0  0  0  0  0  0  0  0  0  0  0
   25.1030  -28.9510   44.5380 C   0  0  0  0  0  0  0  0  0  0  0  0
   24.1640  -28.0570   44.0330 C   0  0  0  0  0  0  0  0  0  0  0  0
   23.9250  -26.9300   44.7700 O   0  0  0  0  0  0  0  0  0  0  0  0
   23.5160  -28.3330   42.8260 C   0  0  0  0  0  0  0  0  0  0  0  0
   22.5210  -27.4190   42.2600 C   0  0  0  0  0  0  0  0  0  0  0  0
   22.2050  -26.3720   42.8200 O   0  0  0  0  0  0  0  0  0  0  0  0
   21.8970  -27.7990   40.9710 C   0  0  0  0  0  0  0  0  0  0  0  0
   20.9510  -26.9350   40.4520 O   0  0  0  0  0  0  0  0  0  0  0  0
   20.8000  -30.5120   39.0700 C   0  0  0  0  0  0  0  0  0  0  0  0
   20.2450  -30.9610   37.8550 C   0  0  0  0  0  0  0  0  0  0  0  0
   19.2960  -32.1430   37.8930 C   0  0  0  0  0  0  0  0  0  0  0  0
   19.6900  -33.1490   38.9880 C   0  0  0  0  0  0  0  0  0  0  0  0
   19.5650  -34.5580   38.5620 N   0  0  0  0  0  0  0  0  0  0  0  0
   19.2060  -34.6700   37.1460 C   0  0  0  0  0  0  0  0  0  0  0  0
   18.5550  -35.2360   39.3800 C   0  0  0  0  0  0  0  0  0  0  0  0
   19.1896  -31.4073   35.4816 H   0  0  0  0  0  0  0  0  0  0  0  0
   19.7392  -29.8582   34.7570 H   0  0  0  0  0  0  0  0  0  0  0  0
   20.8288  -31.2863   34.7570 H   0  0  0  0  0  0  0  0  0  0  0  0
   21.7838  -28.7251   35.7731 H   0  0  0  0  0  0  0  0  0  0  0  0
   22.7374  -27.9548   37.9314 H   0  0  0  0  0  0  0  0  0  0  0  0
   24.9790  -31.3214   42.0807 H   0  0  0  0  0  0  0  0  0  0  0  0
   26.1398  -30.8298   44.2364 H   0  0  0  0  0  0  0  0  0  0  0  0
   25.6135  -28.7347   45.4881 H   0  0  0  0  0  0  0  0  0  0  0  0
   24.5590  -26.6350   45.3930 H   0  0  0  0  0  0  0  0  0  0  0  0
   20.9210  -26.7710   39.5310 H   0  0  0  0  0  0  0  0  0  0  0  0
   20.5141  -31.0126   40.0068 H   0  0  0  0  0  0  0  0  0  0  0  0
   18.2780  -31.7775   38.0933 H   0  0  0  0  0  0  0  0  0  0  0  0
   19.3446  -32.6553   36.9208 H   0  0  0  0  0  0  0  0  0  0  0  0
   20.7359  -32.9623   39.2732 H   0  0  0  0  0  0  0  0  0  0  0  0
   18.9972  -33.0013   39.8295 H   0  0  0  0  0  0  0  0  0  0  0  0
   20.4750  -35.0020   38.6890 H   0  0  0  0  0  0  0  0  0  0  0  0
   18.1593  -34.9965   37.0578 H   0  0  0  0  0  0  0  0  0  0  0  0
   19.3271  -33.6914   36.6585 H   0  0  0  0  0  0  0  0  0  0  0  0
   19.8621  -35.4062   36.6585 H   0  0  0  0  0  0  0  0  0  0  0  0
   18.7829  -35.0830   40.4452 H   0  0  0  0  0  0  0  0  0  0  0  0
   17.5615  -34.8212   39.1543 H   0  0  0  0  0  0  0  0  0  0  0  0
   18.5627  -36.3126   39.1543 H   0  0  0  0  0  0  0  0  0  0  0  0
  1  2  1  0
  2  3  2  0
  3  4  1  0
  4  5  2  0
  5  6  1  0
  6  7  1  0
  7  8  1  0
  8  9  2  0
  9 10  1  0
 10 11  2  0
 11 12  1  0
 12 13  1  0
 12 14  2  0
 14 15  1  0
 15 16  2  0
 15 17  1  0
 17 18  1  0
  5 19  1  0
 19 20  2  0
 20 21  1  0
 21 22  1  0
 22 23  1  0
 23 24  1  0
 23 25  1  0
 20  2  1  0
 17  6  2  0
 14  8  1  0
  1 26  1  0
  1 27  1  0
  1 28  1  0
  3 29  1  0
  4 30  1  0
  9 31  1  0
 10 32  1  0
 11 33  1  0
 13 34  1  0
 18 35  1  0
 19 36  1  0
 21 37  1  0
 21 38  1  0
 22 39  1  0
 22 40  1  0
 23 41  1  0
 24 42  1  0
 24 43  1  0
 24 44  1  0
 25 45  1  0
 25 46  1  0
 25 47  1  0
M  CHG  1  23   1
M  END
>  <meeko>  (3) 
{"is_sidechain": [false], "free_energy": -8.704, "intermolecular_energy": -11.462, "internal_energy": -0.488}

$$$$
cand_041_out
     RDKit          3D

 47 49  0  0  0  0  0  0  0  0999 V2000
   21.6370  -25.5260   41.6280 C   0  0  0  0  0  0  0  0  0  0  0  0
   21.2630  -26.7910   40.9050 C   0  0  0  0  0  0  0  0  0  0  0  0
   20.1780  -26.7710   40.0160 C   0  0  0  0  0  0  0  0  0  0  0  0
   19.7980  -27.9200   39.3190 C   0  0  0  0  0  0  0  0  0  0  0  0
   20.4890  -29.1230   39.4920 C   0  0  0  0  0  0  0  0  0  0  0  0
   20.0840  -30.3230   38.7290 C   0  0  0  0  0  0  0  0  0  0  0  0
   19.6470  -31.3610   39.5440 O   0  0  0  0  0  0  0  0  0  0  0  0
   19.2410  -32.5350   38.9640 C   0  0  0  0  0  0  0  0  0  0  0  0
   18.7960  -33.5440   39.8200 C   0  0  0  0  0  0  0  0  0  0  0  0
   18.3700  -34.7650   39.2940 C   0  0  0  0  0  0  0  0  0  0  0  0
   18.3910  -34.9780   37.9140 C   0  0  0  0  0  0  0  0  0  0  0  0
   18.8360  -33.9710   37.0630 C   0  0  0  0  0  0  0  0  0  0  0  0
   18.8300  -34.2460   35.7230 O   0  0  0  0  0  0  0  0  0  0  0  0
   19.2610  -32.7480   37.5890 C   0  0  0  0  0  0  0  0  0  0  0  0
   19.7360  -31.6630   36.7300 C   0  0  0  0  0  0  0  0  0  0  0  0
   19.7900  -31.7750   35.5070 O   0  0  0  0  0  0  0  0  0  0  0  0
   20.1570  -30.4030   37.3870 C   0  0  0  0  0  0  0  0  0  0  0  0
   20.6160  -29.3890   36.5660 O   0  0  0  0  0  0  0  0  0  0  0  0
   21.5860  -29.1390   40.3650 C   0  0  0  0  0  0  0  0  0  0  0  0
   21.9860  -27.9890   41.0740 C   0  0  0  0  0  0  0  0  0  0  0  0
   23.1640  -28.1030   42.0210 C   0  0  0  0  0  0  0  0  0  0  0  0
   23.8110  -29.4980   41.9540 C   0  0  0  0  0  0  0  0  0  0  0  0
   24.2810  -29.9890   43.2650 N   0  0  0  0  0  0  0  0  0  0  0  0
   24.7410  -28.8960   44.1250 C   0  0  0  0  0  0  0  0  0  0  0  0
   25.3690  -30.9530   43.0720 C   0  0  0  0  0  0  0  0  0  0  0  0
   21.5868  -25.6957   42.7137 H   0  0  0  0  0  0  0  0  0  0  0  0
   22.6601  -25.2333   41.3495 H   0  0  0  0  0  0  0  0  0  0  0  0
   20.9375  -24.7240   41.3495 H   0  0  0  0  0  0  0  0  0  0  0  0
   19.6181  -25.8362   39.8656 H   0  0  0  0  0  0  0  0  0  0  0  0
   18.9450  -27.8780   38.6257 H   0  0  0  0  0  0  0  0  0  0  0  0
   18.7810  -33.3773   40.9072 H   0  0  0  0  0  0  0  0  0  0  0  0
   18.0174  -35.5602   39.9673 H   0  0  0  0  0  0  0  0  0  0  0  0
   18.0562  -35.9406   37.5002 H   0  0  0  0  0  0  0  0  0  0  0  0
   18.6890  -35.1230   35.4250 H   0  0  0  0  0  0  0  0  0  0  0  0
   20.5900  -28.5000   36.8600 H   0  0  0  0  0  0  0  0  0  0  0  0
   22.1493  -30.0741   40.5000 H   0  0  0  0  0  0  0  0  0  0  0  0
   23.9155  -27.3473   41.7487 H   0  0  0  0  0  0  0  0  0  0  0  0
   22.7987  -27.9417   43.0460 H   0  0  0  0  0  0  0  0  0  0  0  0
   23.0687  -30.2083   41.5611 H   0  0  0  0  0  0  0  0  0  0  0  0
   24.6932  -29.4163   41.3021 H   0  0  0  0  0  0  0  0  0  0  0  0
   23.4920  -30.4400   43.7280 H   0  0  0  0  0  0  0  0  0  0  0  0
   24.6200  -29.1836   45.1798 H   0  0  0  0  0  0  0  0  0  0  0  0
   25.8020  -28.6902   43.9205 H   0  0  0  0  0  0  0  0  0  0  0  0
   24.1464  -27.9934   43.9205 H   0  0  0  0  0  0  0  0  0  0  0  0
   25.7432  -31.2846   44.0518 H   0  0  0  0  0  0  0  0  0  0  0  0
   24.9944  -31.8210   42.5097 H   0  0  0  0  0  0  0  0  0  0  0  0
   26.1856  -30.4765   42.5097 H   0  0  0  0  0  0  0  0  0  0  0  0
  1  2  1  0
  2  3  2  0
  3  4  1  0
  4  5  2  0
  5  6  1  0
  6  7  1  0
  7  8  1  0
  8  9  2  0
  9 10  1  0
 10 11  2  0
 11 12  1  0
 12 13  1  0
 12 14  2  0
 14 15  1  0
 15 16  2  0
 15 17  1  0
 17 18  1  0
  5 19  1  0
 19 20  2  0
 20 21  1  0
 21 22  1  0
 22 23  1  0
 23 24  1  0
 23 25  1  0
 20  2  1  0
 17  6  2  0
 14  8  1  0
  1 26  1  0
  1 27  1  0
  1 28  1  0
  3 29  1  0
  4 30  1  0
  9 31  1  0
 10 32  1  0
 11 33  1  0
 13 34  1  0
 18 35  1  0
 19 36  1  0
 21 37  1  0
 21 38  1  0
 22 39  1  0
 22 40  1  0
 23 41  1  0
 24 42  1  0
 24 43  1  0
 24 44  1  0
 25 45  1  0
 25 46  1  0
 25 47  1  0
M  CHG  1  23   1
M  END
>  <meeko>  (4) 
{"is_sidechain": [false], "free_energy": -8.628, "intermolecular_energy": -11.415, "internal_energy": -0.435}

$$$$
cand_041_out
     RDKit          3D

 47 49  0  0  0  0  0  0  0  0999 V2000
   20.4060  -30.8770   35.8480 C   0  0  0  0  0  0  0  0  0  0  0  0
   20.8140  -30.3200   37.1840 C   0  0  0  0  0  0  0  0  0  0  0  0
   21.8010  -29.3250   37.2340 C   0  0  0  0  0  0  0  0  0  0  0  0
   22.2080  -28.7760   38.4520 C   0  0  0  0  0  0  0  0  0  0  0  0
   21.6430  -29.2080   39.6560 C   0  0  0  0  0  0  0  0  0  0  0  0
   22.0730  -28.5990   40.9330 C   0  0  0  0  0  0  0  0  0  0  0  0
   21.3030  -27.5000   41.2950 O   0  0  0  0  0  0  0  0  0  0  0  0
   21.5950  -26.8390   42.4600 C   0  0  0  0  0  0  0  0  0  0  0  0
   20.7860  -25.7520   42.7920 C   0  0  0  0  0  0  0  0  0  0  0  0
   21.0310  -25.0340   43.9650 C   0  0  0  0  0  0  0  0  0  0  0  0
   22.0840  -25.4030   44.8040 C   0  0  0  0  0  0  0  0  0  0  0  0
   22.8890  -26.4880   44.4720 C   0  0  0  0  0  0  0  0  0  0  0  0
   23.9030  -26.7940   45.3370 O   0  0  0  0  0  0  0  0  0  0  0  0
   22.6440  -27.2060   43.2980 C   0  0  0  0  0  0  0  0  0  0  0  0
   23.4670  -28.3530   42.9100 C   0  0  0  0  0  0  0  0  0  0  0  0
   24.4150  -28.7350   43.5930 O   0  0  0  0  0  0  0  0  0  0  0  0
   23.1180  -29.0520   41.6510 C   0  0  0  0  0  0  0  0  0  0  0  0
   23.9100  -30.1260   41.2890 O   0  0  0  0  0  0  0  0  0  0  0  0
   20.6430  -30.1880   39.6060 C   0  0  0  0  0  0  0  0  0  0  0  0
   20.2180  -30.7520   38.3860 C   0  0  0  0  0  0  0  0  0  0  0  0
   19.1530  -31.8290   38.4270 C   0  0  0  0  0  0  0  0  0  0  0  0
   19.6870  -33.1300   39.0530 C   0  0  0  0  0  0  0  0  0  0  0  0
   19.6200  -34.2900   38.1410 N   0  0  0  0  0  0  0  0  0  0  0  0
   18.7850  -34.0160   36.9690 C   0  0  0  0  0  0  0  0  0  0  0  0
   19.0950  -35.4550   38.8570 C   0  0  0  0  0  0  0  0  0  0  0  0
   19.7621  -31.7561   35.9984 H   0  0  0  0  0  0  0  0  0  0  0  0
   19.8542  -30.1104   35.2842 H   0  0  0  0  0  0  0  0  0  0  0  0
   21.3033  -31.1719   35.2842 H   0  0  0  0  0  0  0  0  0  0  0  0
   22.2616  -28.9716   36.2997 H   0  0  0  0  0  0  0  0  0  0  0  0
   22.9821  -27.9946   38.4644 H   0  0  0  0  0  0  0  0  0  0  0  0
   19.9564  -25.4607   42.1311 H   0  0  0  0  0  0  0  0  0  0  0  0
   20.3935  -24.1770   44.2278 H   0  0  0  0  0  0  0  0  0  0  0  0
   22.2771  -24.8363   45.7268 H   0  0  0  0  0  0  0  0  0  0  0  0
   23.7390  -27.3520   46.0720 H   0  0  0  0  0  0  0  0  0  0  0  0
   24.7790  -29.9810   40.9710 H   0  0  0  0  0  0  0  0  0  0  0  0
   20.1773  -30.5262   40.5434 H   0  0  0  0  0  0  0  0  0  0  0  0
   18.3029  -31.4680   39.0245 H   0  0  0  0  0  0  0  0  0  0  0  0
   18.8430  -32.0460   37.3941 H   0  0  0  0  0  0  0  0  0  0  0  0
   20.7369  -32.9731   39.3411 H   0  0  0  0  0  0  0  0  0  0  0  0
   19.0484  -33.3600   39.9186 H   0  0  0  0  0  0  0  0  0  0  0  0
   20.5670  -34.4790   37.8110 H   0  0  0  0  0  0  0  0  0  0  0  0
   17.7876  -33.6887   37.2978 H   0  0  0  0  0  0  0  0  0  0  0  0
   19.2502  -33.2234   36.3646 H   0  0  0  0  0  0  0  0  0  0  0  0
   18.6902  -34.9301   36.3646 H   0  0  0  0  0  0  0  0  0  0  0  0
   19.1719  -35.2844   39.9410 H   0  0  0  0  0  0  0  0  0  0  0  0
   18.0406  -35.6087   38.5839 H   0  0  0  0  0  0  0  0  0  0  0  0
   19.6783  -36.3467   38.5839 H   0  0  0  0  0  0  0  0  0  0  0  0
  1  2  1  0
  2  3  2  0
  3  4  1  0
  4  5  2  0
  5  6  1  0
  6  7  1  0
  7  8  1  0
  8  9  2  0
  9 10  1  0
 10 11  2  0
 11 12  1  0
 12 13  1  0
 12 14  2  0
 14 15  1  0
 15 16  2  0
 15 17  1  0
 17 18  1  0
  5 19  1  0
 19 20  2  0
 20 21  1  0
 21 22  1  0
 22 23  1  0
 23 24  1  0
 23 25  1  0
 20  2  1  0
 17  6  2  0
 14  8  1  0
  1 26  1  0
  1 27  1  0
  1 28  1  0
  3 29  1  0
  4 30  1  0
  9 31  1  0
 10 32  1  0
 11 33  1  0
 13 34  1  0
 18 35  1  0
 19 36  1  0
 21 37  1  0
 21 38  1  0
 22 39  1  0
 22 40  1  0
 23 41  1  0
 24 42  1  0
 24 43  1  0
 24 44  1  0
 25 45  1  0
 25 46  1  0
 25 47  1  0
M  CHG  1  23   1
M  END
>  <meeko>  (5) 
{"is_sidechain": [false], "free_energy": -8.574, "intermolecular_energy": -11.177, "internal_energy": -0.605}

$$$$
cand_041_out
     RDKit          3D

 47 49  0  0  0  0  0  0  0  0999 V2000
   20.5920  -26.2660   41.5490 C   0  0  0  0  0  0  0  0  0  0  0  0
   20.4320  -27.4910   40.6910 C   0  0  0  0  0  0  0  0  0  0  0  0
   19.2420  -27.6660   39.9700 C   0  0  0  0  0  0  0  0  0  0  0  0
   19.0510  -28.7850   39.1570 C   0  0  0  0  0  0  0  0  0  0  0  0
   20.0440  -29.7630   39.0410 C   0  0  0  0  0  0  0  0  0  0  0  0
   19.8310  -30.9290   38.1580 C   0  0  0  0  0  0  0  0  0  0  0  0
   20.1790  -30.6780   36.8360 O   0  0  0  0  0  0  0  0  0  0  0  0
   20.0310  -31.6770   35.9090 C   0  0  0  0  0  0  0  0  0  0  0  0
   20.4070  -31.3860   34.5970 C   0  0  0  0  0  0  0  0  0  0  0  0
   20.2800  -32.3590   33.6030 C   0  0  0  0  0  0  0  0  0  0  0  0
   19.7740  -33.6210   33.9210 C   0  0  0  0  0  0  0  0  0  0  0  0
   19.4000  -33.9100   35.2300 C   0  0  0  0  0  0  0  0  0  0  0  0
   18.9130  -35.1650   35.4720 O   0  0  0  0  0  0  0  0  0  0  0  0
   19.5280  -32.9360   36.2250 C   0  0  0  0  0  0  0  0  0  0  0  0
   19.1460  -33.1970   37.6130 C   0  0  0  0  0  0  0  0  0  0  0  0
   18.6880  -34.2810   37.9700 O   0  0  0  0  0  0  0  0  0  0  0  0
   19.3290  -32.1010   38.5930 C   0  0  0  0  0  0  0  0  0  0  0  0
   18.9520  -32.3560   39.8980 O   0  0  0  0  0  0  0  0  0  0  0  0
   21.2420  -29.5780   39.7450 C   0  0  0  0  0  0  0  0  0  0  0  0
   21.4530  -28.4550   40.5690 C   0  0  0  0  0  0  0  0  0  0  0  0
   22.7660  -28.3510   41.3180 C   0  0  0  0  0  0  0  0  0  0  0  0
   23.4140  -29.7330   41.5190 C   0  0  0  0  0  0  0  0  0  0  0  0
   24.5270  -29.7220   42.4900 N   0  0  0  0  0  0  0  0  0  0  0  0
   24.7890  -31.0560   43.0350 C   0  0  0  0  0  0  0  0  0  0  0  0
   24.2220  -28.7950   43.5840 C   0  0  0  0  0  0  0  0  0  0  0  0
   20.5544  -26.5540   42.6100 H   0  0  0  0  0  0  0  0  0  0  0  0
   21.5599  -25.7904   41.3323 H   0  0  0  0  0  0  0  0  0  0  0  0
   19.7787  -25.5578   41.3323 H   0  0  0  0  0  0  0  0  0  0  0  0
   18.4466  -26.9099   40.0461 H   0  0  0  0  0  0  0  0  0  0  0  0
   18.1085  -28.8987   38.6013 H   0  0  0  0  0  0  0  0  0  0  0  0
   20.8031  -30.3910   34.3458 H   0  0  0  0  0  0  0  0  0  0  0  0
   20.5787  -32.1310   32.5692 H   0  0  0  0  0  0  0  0  0  0  0  0
   19.6711  -34.3862   33.1375 H   0  0  0  0  0  0  0  0  0  0  0  0
   18.4620  -35.3460   36.2720 H   0  0  0  0  0  0  0  0  0  0  0  0
   18.9870  -33.2290   40.2340 H   0  0  0  0  0  0  0  0  0  0  0  0
   22.0391  -30.3302   39.6515 H   0  0  0  0  0  0  0  0  0  0  0  0
   23.4549  -27.7136   40.7443 H   0  0  0  0  0  0  0  0  0  0  0  0
   22.5639  -27.9181   42.3088 H   0  0  0  0  0  0  0  0  0  0  0  0
   22.6435  -30.4306   41.8793 H   0  0  0  0  0  0  0  0  0  0  0  0
   23.8316  -30.0407   40.5490 H   0  0  0  0  0  0  0  0  0  0  0  0
   25.3660  -29.4170   41.9970 H   0  0  0  0  0  0  0  0  0  0  0  0
   24.7802  -31.0113   44.1341 H   0  0  0  0  0  0  0  0  0  0  0  0
   24.0105  -31.7524   42.6901 H   0  0  0  0  0  0  0  0  0  0  0  0
   25.7731  -31.4062   42.6901 H   0  0  0  0  0  0  0  0  0  0  0  0
   24.3876  -29.2983   44.5480 H   0  0  0  0  0  0  0  0  0  0  0  0
   24.8779  -27.9149   43.5124 H   0  0  0  0  0  0  0  0  0  0  0  0
   23.1716  -28.4763   43.5124 H   0  0  0  0  0  0  0  0  0  0  0  0
  1  2  1  0
  2  3  2  0
  3  4  1  0
  4  5  2  0
  5  6  1  0
  6  7  1  0
  7  8  1  0
  8  9  2  0
  9 10  1  0
 10 11  2  0
 11 12  1  0
 12 13  1  0
 12 14  2  0
 14 15  1  0
 15 16  2  0
 15 17  1  0
 17 18  1  0
  5 19  1  0
 19 20  2  0
 20 21  1  0
 21 22  1  0
 22 23  1  0
 23 24  1  0
 23 25  1  0
 20  2  1  0
 17  6  2  0
 14  8  1  0
  1 26  1  0
  1 27  1  0
  1 28  1  0
  3 29  1  0
  4 30  1  0
  9 31  1  0
 10 32  1  0
 11 33  1  0
 13 34  1  0
 18 35  1  0
 19 36  1  0
 21 37  1  0
 21 38  1  0
 22 39  1  0
 22 40  1  0
 23 41  1  0
 24 42  1  0
 24 43  1  0
 24 44  1  0
 25 45  1  0
 25 46  1  0
 25 47  1  0
M  CHG  1  23   1
M  END
>  <meeko>  (6) 
{"is_sidechain": [false], "free_energy": -8.477, "intermolecular_energy": -11.101, "internal_energy": -0.555}

$$$$
cand_041_out
     RDKit          3D

 47 49  0  0  0  0  0  0  0  0999 V2000
   19.6300  -32.2680   36.4320 C   0  0  0  0  0  0  0  0  0  0  0  0
   20.1090  -31.1940   37.3690 C   0  0  0  0  0  0  0  0  0  0  0  0
   20.2520  -31.4940   38.7320 C   0  0  0  0  0  0  0  0  0  0  0  0
   20.6980  -30.5290   39.6380 C   0  0  0  0  0  0  0  0  0  0  0  0
   21.0110  -29.2360   39.2090 C   0  0  0  0  0  0  0  0  0  0  0  0
   21.5020  -28.2350   40.1800 C   0  0  0  0  0  0  0  0  0  0  0  0
   22.3870  -28.7710   41.1090 O   0  0  0  0  0  0  0  0  0  0  0  0
   22.9190  -27.9500   42.0700 C   0  0  0  0  0  0  0  0  0  0  0  0
   23.8140  -28.5270   42.9710 C   0  0  0  0  0  0  0  0  0  0  0  0
   24.3910  -27.7460   43.9760 C   0  0  0  0  0  0  0  0  0  0  0  0
   24.0700  -26.3910   44.0800 C   0  0  0  0  0  0  0  0  0  0  0  0
   23.1770  -25.8180   43.1800 C   0  0  0  0  0  0  0  0  0  0  0  0
   22.9080  -24.4860   43.3380 O   0  0  0  0  0  0  0  0  0  0  0  0
   22.6010  -26.5990   42.1740 C   0  0  0  0  0  0  0  0  0  0  0  0
   21.6570  -26.0370   41.2070 C   0  0  0  0  0  0  0  0  0  0  0  0
   21.3210  -24.8550   41.2370 O   0  0  0  0  0  0  0  0  0  0  0  0
   21.1090  -26.9470   40.1740 C   0  0  0  0  0  0  0  0  0  0  0  0
   20.2090  -26.4070   39.2750 O   0  0  0  0  0  0  0  0  0  0  0  0
   20.8880  -28.9410   37.8440 C   0  0  0  0  0  0  0  0  0  0  0  0
   20.4420  -29.9020   36.9150 C   0  0  0  0  0  0  0  0  0  0  0  0
   20.3080  -29.4880   35.4630 C   0  0  0  0  0  0  0  0  0  0  0  0
   20.5990  -27.9890   35.2720 C   0  0  0  0  0  0  0  0  0  0  0  0
   19.4200  -27.2140   34.8340 N   0  0  0  0  0  0  0  0  0  0  0  0
   18.8430  -26.4300   35.9280 C   0  0  0  0  0  0  0  0  0  0  0  0
   18.4040  -28.1220   34.2910 C   0  0  0  0  0  0  0  0  0  0  0  0
   19.2500  -33.1201   37.0146 H   0  0  0  0  0  0  0  0  0  0  0  0
   18.8246  -31.8690   35.7980 H   0  0  0  0  0  0  0  0  0  0  0  0
   20.4651  -32.6006   35.7980 H   0  0  0  0  0  0  0  0  0  0  0  0
   20.0092  -32.5044   39.0926 H   0  0  0  0  0  0  0  0  0  0  0  0
   20.8042  -30.7896   40.7014 H   0  0  0  0  0  0  0  0  0  0  0  0
   24.0652  -29.5949   42.8906 H   0  0  0  0  0  0  0  0  0  0  0  0
   25.0987  -28.1991   44.6858 H   0  0  0  0  0  0  0  0  0  0  0  0
   24.5227  -25.7772   44.8727 H   0  0  0  0  0  0  0  0  0  0  0  0
   22.0250  -24.1780   43.2910 H   0  0  0  0  0  0  0  0  0  0  0  0
   20.0740  -25.4810   39.2450 H   0  0  0  0  0  0  0  0  0  0  0  0
   21.1465  -27.9325   37.4888 H   0  0  0  0  0  0  0  0  0  0  0  0
   21.0198  -30.0696   34.8588 H   0  0  0  0  0  0  0  0  0  0  0  0
   19.2729  -29.6808   35.1445 H   0  0  0  0  0  0  0  0  0  0  0  0
   20.9510  -27.5773   36.2294 H   0  0  0  0  0  0  0  0  0  0  0  0
   21.3568  -27.9036   34.4792 H   0  0  0  0  0  0  0  0  0  0  0  0
   19.7280  -26.5630   34.1120 H   0  0  0  0  0  0  0  0  0  0  0  0
   19.1578  -26.8577   36.8913 H   0  0  0  0  0  0  0  0  0  0  0  0
   19.1923  -25.3893   35.8572 H   0  0  0  0  0  0  0  0  0  0  0  0
   17.7455  -26.4541   35.8572 H   0  0  0  0  0  0  0  0  0  0  0  0
   17.8638  -28.6048   35.1187 H   0  0  0  0  0  0  0  0  0  0  0  0
   17.6947  -27.5514   33.6736 H   0  0  0  0  0  0  0  0  0  0  0  0
   18.8916  -28.8907   33.6736 H   0  0  0  0  0  0  0  0  0  0  0  0
  1  2  1  0
  2  3  2  0
  3  4  1  0
  4  5  2  0
  5  6  1  0
  6  7  1  0
  7  8  1  0
  8  9  2  0
  9 10  1  0
 10 11  2  0
 11 12  1  0
 12 13  1  0
 12 14  2  0
 14 15  1  0
 15 16  2  0
 15 17  1  0
 17 18  1  0
  5 19  1  0
 19 20  2  0
 20 21  1  0
 21 22  1  0
 22 23  1  0
 23 24  1  0
 23 25  1  0
 20  2  1  0
 17  6  2  0
 14  8  1  0
  1 26  1  0
  1 27  1  0
  1 28  1  0
  3 29  1  0
  4 30  1  0
  9 31  1  0
 10 32  1  0
 11 33  1  0
 13 34  1  0
 18 35  1  0
 19 36  1  0
 21 37  1  0
 21 38  1  0
 22 39  1  0
 22 40  1  0
 23 41  1  0
 24 42  1  0
 24 43  1  0
 24 44  1  0
 25 45  1  0
 25 46  1  0
 25 47  1  0
M  CHG  1  23   1
M  END
>  <meeko>  (7) 
{"is_sidechain": [false], "free_energy": -8.042, "intermolecular_energy": -10.722, "internal_energy": -0.372}

$$$$
cand_041_out
     RDKit          3D

 47 49  0  0  0  0  0  0  0  0999 V2000
   19.1630  -28.1320   35.3610 C   0  0  0  0  0  0  0  0  0  0  0  0
   19.9010  -28.0470   36.6690 C   0  0  0  0  0  0  0  0  0  0  0  0
   19.7410  -26.9040   37.4670 C   0  0  0  0  0  0  0  0  0  0  0  0
   20.4020  -26.7840   38.6910 C   0  0  0  0  0  0  0  0  0  0  0  0
   21.2440  -27.8000   39.1520 C   0  0  0  0  0  0  0  0  0  0  0  0
   21.9180  -27.6630   40.4610 C   0  0  0  0  0  0  0  0  0  0  0  0
   22.6940  -28.7680   40.7890 O   0  0  0  0  0  0  0  0  0  0  0  0
   23.3750  -28.7720   41.9790 C   0  0  0  0  0  0  0  0  0  0  0  0
   24.1540  -29.8950   42.2610 C   0  0  0  0  0  0  0  0  0  0  0  0
   24.8720  -29.9640   43.4570 C   0  0  0  0  0  0  0  0  0  0  0  0
   24.8100  -28.9100   44.3710 C   0  0  0  0  0  0  0  0  0  0  0  0
   24.0330  -27.7910   44.0880 C   0  0  0  0  0  0  0  0  0  0  0  0
   24.0170  -26.7960   45.0270 O   0  0  0  0  0  0  0  0  0  0  0  0
   23.3150  -27.7220   42.8910 C   0  0  0  0  0  0  0  0  0  0  0  0
   22.4860  -26.5640   42.5540 C   0  0  0  0  0  0  0  0  0  0  0  0
   22.3760  -25.6000   43.3090 O   0  0  0  0  0  0  0  0  0  0  0  0
   21.7720  -26.5860   41.2560 C   0  0  0  0  0  0  0  0  0  0  0  0
   20.9820  -25.4920   40.9560 O   0  0  0  0  0  0  0  0  0  0  0  0
   21.3880  -28.9510   38.3650 C   0  0  0  0  0  0  0  0  0  0  0  0
   20.7270  -29.0920   37.1290 C   0  0  0  0  0  0  0  0  0  0  0  0
   20.9650  -30.3560   36.3280 C   0  0  0  0  0  0  0  0  0  0  0  0
   19.9750  -31.4680   36.7190 C   0  0  0  0  0  0  0  0  0  0  0  0
   20.1110  -32.6890   35.8990 N   0  0  0  0  0  0  0  0  0  0  0  0
   20.1330  -32.3850   34.4660 C   0  0  0  0  0  0  0  0  0  0  0  0
   19.0060  -33.6080   36.1890 C   0  0  0  0  0  0  0  0  0  0  0  0
   18.0872  -28.2559   35.5543 H   0  0  0  0  0  0  0  0  0  0  0  0
   19.3283  -27.2089   34.7861 H   0  0  0  0  0  0  0  0  0  0  0  0
   19.5338  -28.9934   34.7861 H   0  0  0  0  0  0  0  0  0  0  0  0
   19.0852  -26.0905   37.1232 H   0  0  0  0  0  0  0  0  0  0  0  0
   20.2584  -25.8791   39.2998 H   0  0  0  0  0  0  0  0  0  0  0  0
   24.2025  -30.7256   41.5415 H   0  0  0  0  0  0  0  0  0  0  0  0
   25.4865  -30.8489   43.6791 H   0  0  0  0  0  0  0  0  0  0  0  0
   25.3747  -28.9643   45.3134 H   0  0  0  0  0  0  0  0  0  0  0  0
   23.2150  -26.3580   45.2310 H   0  0  0  0  0  0  0  0  0  0  0  0
   20.1590  -25.6120   40.5240 H   0  0  0  0  0  0  0  0  0  0  0  0
   22.0346  -29.7661   38.7222 H   0  0  0  0  0  0  0  0  0  0  0  0
   20.8434  -30.1293   35.2585 H   0  0  0  0  0  0  0  0  0  0  0  0
   21.9841  -30.7117   36.5402 H   0  0  0  0  0  0  0  0  0  0  0  0
   20.1477  -31.7342   37.7722 H   0  0  0  0  0  0  0  0  0  0  0  0
   18.9616  -31.0747   36.5505 H   0  0  0  0  0  0  0  0  0  0  0  0
   21.0020  -33.1260   36.1380 H   0  0  0  0  0  0  0  0  0  0  0  0
   20.2117  -31.2972   34.3231 H   0  0  0  0  0  0  0  0  0  0  0  0
   20.9977  -32.8796   33.9995 H   0  0  0  0  0  0  0  0  0  0  0  0
   19.2061  -32.7500   33.9995 H   0  0  0  0  0  0  0  0  0  0  0  0
   18.8874  -33.7067   37.2781 H   0  0  0  0  0  0  0  0  0  0  0  0
   18.0765  -33.2129   35.7532 H   0  0  0  0  0  0  0  0  0  0  0  0
   19.2251  -34.5939   35.7532 H   0  0  0  0  0  0  0  0  0  0  0  0
  1  2  1  0
  2  3  2  0
  3  4  1  0
  4  5  2  0
  5  6  1  0
  6  7  1  0
  7  8  1  0
  8  9  2  0
  9 10  1  0
 10 11  2  0
 11 12  1  0
 12 13  1  0
 12 14  2  0
 14 15  1  0
 15 16  2  0
 15 17  1  0
 17 18  1  0
  5 19  1  0
 19 20  2  0
 20 21  1  0
 21 22  1  0
 22 23  1  0
 23 24  1  0
 23 25  1  0
 20  2  1  0
 17  6  2  0
 14  8  1  0
  1 26  1  0
  1 27  1  0
  1 28  1  0
  3 29  1  0
  4 30  1  0
  9 31  1  0
 10 32  1  0
 11 33  1  0
 13 34  1  0
 18 35  1  0
 19 36  1  0
 21 37  1  0
 21 38  1  0
 22 39  1  0
 22 40  1  0
 23 41  1  0
 24 42  1  0
 24 43  1  0
 24 44  1  0
 25 45  1  0
 25 46  1  0
 25 47  1  0
M  CHG  1  23   1
M  END
>  <meeko>  (8) 
{"is_sidechain": [false], "free_energy": -7.966, "intermolecular_energy": -11.201, "internal_energy": 0.205}

$$$$
cand_041_out
     RDKit          3D

 47 49  0  0  0  0  0  0  0  0999 V2000
   21.5060  -24.6830   44.8730 C   0  0  0  0  0  0  0  0  0  0  0  0
   21.3580  -25.5260   43.6360 C   0  0  0  0  0  0  0  0  0  0  0  0
   20.1210  -25.5530   42.9750 C   0  0  0  0  0  0  0  0  0  0  0  0
   19.9390  -26.3170   41.8210 C   0  0  0  0  0  0  0  0  0  0  0  0
   20.9860  -27.0790   41.2940 C   0  0  0  0  0  0  0  0  0  0  0  0
   20.7790  -27.8650   40.0590 C   0  0  0  0  0  0  0  0  0  0  0  0
   20.4790  -29.1990   40.3110 O   0  0  0  0  0  0  0  0  0  0  0  0
   20.2630  -30.0420   39.2510 C   0  0  0  0  0  0  0  0  0  0  0  0
   19.9500  -31.3690   39.5510 C   0  0  0  0  0  0  0  0  0  0  0  0
   19.7190  -32.2800   38.5180 C   0  0  0  0  0  0  0  0  0  0  0  0
   19.8030  -31.8650   37.1870 C   0  0  0  0  0  0  0  0  0  0  0  0
   20.1150  -30.5420   36.8910 C   0  0  0  0  0  0  0  0  0  0  0  0
   20.1820  -30.2030   35.5670 O   0  0  0  0  0  0  0  0  0  0  0  0
   20.3450  -29.6300   37.9250 C   0  0  0  0  0  0  0  0  0  0  0  0
   20.6770  -28.2290   37.6580 C   0  0  0  0  0  0  0  0  0  0  0  0
   20.7750  -27.7900   36.5140 O   0  0  0  0  0  0  0  0  0  0  0  0
   20.8930  -27.3420   38.8240 C   0  0  0  0  0  0  0  0  0  0  0  0
   21.2180  -26.0240   38.5590 O   0  0  0  0  0  0  0  0  0  0  0  0
   22.2280  -27.0370   41.9430 C   0  0  0  0  0  0  0  0  0  0  0  0
   22.4320  -26.2700   43.1070 C   0  0  0  0  0  0  0  0  0  0  0  0
   23.7990  -26.3070   43.7610 C   0  0  0  0  0  0  0  0  0  0  0  0
   24.5700  -27.5850   43.3880 C   0  0  0  0  0  0  0  0  0  0  0  0
   24.5960  -28.5910   44.4690 N   0  0  0  0  0  0  0  0  0  0  0  0
   25.0040  -29.9100   43.9790 C   0  0  0  0  0  0  0  0  0  0  0  0
   23.2720  -28.6850   45.0910 C   0  0  0  0  0  0  0  0  0  0  0  0
   21.3946  -25.3175   45.7646 H   0  0  0  0  0  0  0  0  0  0  0  0
   22.5004  -24.2128   44.8795 H   0  0  0  0  0  0  0  0  0  0  0  0
   20.7312  -23.9022   44.8795 H   0  0  0  0  0  0  0  0  0  0  0  0
   19.2817  -24.9632   43.3721 H   0  0  0  0  0  0  0  0  0  0  0  0
   18.9597  -26.3195   41.3201 H   0  0  0  0  0  0  0  0  0  0  0  0
   19.8854  -31.6965   40.5991 H   0  0  0  0  0  0  0  0  0  0  0  0
   19.4706  -33.3255   38.7529 H   0  0  0  0  0  0  0  0  0  0  0  0
   19.6227  -32.5834   36.3738 H   0  0  0  0  0  0  0  0  0  0  0  0
   20.8420  -29.6100   35.2680 H   0  0  0  0  0  0  0  0  0  0  0  0
   20.5930  -25.3450   38.7220 H   0  0  0  0  0  0  0  0  0  0  0  0
   23.0662  -27.6189   41.5321 H   0  0  0  0  0  0  0  0  0  0  0  0
   24.3771  -25.4317   43.4299 H   0  0  0  0  0  0  0  0  0  0  0  0
   23.6592  -26.2952   44.8520 H   0  0  0  0  0  0  0  0  0  0  0  0
   24.0930  -28.0347   42.5047 H   0  0  0  0  0  0  0  0  0  0  0  0
   25.6118  -27.2905   43.1934 H   0  0  0  0  0  0  0  0  0  0  0  0
   25.2860  -28.2870   45.1580 H   0  0  0  0  0  0  0  0  0  0  0  0
   25.2086  -30.5715   44.8337 H   0  0  0  0  0  0  0  0  0  0  0  0
   24.1968  -30.3398   43.3677 H   0  0  0  0  0  0  0  0  0  0  0  0
   25.9129  -29.8090   43.3677 H   0  0  0  0  0  0  0  0  0  0  0  0
   23.3798  -28.6773   46.1857 H   0  0  0  0  0  0  0  0  0  0  0  0
   22.6577  -27.8282   44.7770 H   0  0  0  0  0  0  0  0  0  0  0  0
   22.7849  -29.6200   44.7770 H   0  0  0  0  0  0  0  0  0  0  0  0
  1  2  1  0
  2  3  2  0
  3  4  1  0
  4  5  2  0
  5  6  1  0
  6  7  1  0
  7  8  1  0
  8  9  2  0
  9 10  1  0
 10 11  2  0
 11 12  1  0
 12 13  1  0
 12 14  2  0
 14 15  1  0
 15 16  2  0
 15 17  1  0
 17 18  1  0
  5 19  1  0
 19 20  2  0
 20 21  1  0
 21 22  1  0
 22 23  1  0
 23 24  1  0
 23 25  1  0
 20  2  1  0
 17  6  2  0
 14  8  1  0
  1 26  1  0
  1 27  1  0
  1 28  1  0
  3 29  1  0
  4 30  1  0
  9 31  1  0
 10 32  1  0
 11 33  1  0
 13 34  1  0
 18 35  1  0
 19 36  1  0
 21 37  1  0
 21 38  1  0
 22 39  1  0
 22 40  1  0
 23 41  1  0
 24 42  1  0
 24 43  1  0
 24 44  1  0
 25 45  1  0
 25 46  1  0
 25 47  1  0
M  CHG  1  23   1
M  END
>  <meeko>  (9) 
{"is_sidechain": [false], "free_energy": -7.759, "intermolecular_energy": -10.322, "internal_energy": -0.407}

$$$$
