cand_025_out
     RDKit          3D

 53 56  0  0  0  0  0  0  0  0999 V2000
   23.3190  -29.5680   41.1970 C   0  0  0  0  0  0  0  0  0  0  0  0
   22.4890  -28.2930   41.2080 C   0  0  0  0  0  0  0  0  0  0  0  0
   21.2040  -28.4470   40.4260 C   0  0  0  0  0  0  0  0  0  0  0  0
   21.0380  -29.5910   39.6180 C   0  0  0  0  0  0  0  0  0  0  0  0
   19.8770  -29.7920   38.8610 C   0  0  0  0  0  0  0  0  0  0  0  0
   19.7070  -30.9760   37.9930 C   0  0  0  0  0  0  0  0  0  0  0  0
   20.1310  -30.7540   36.6880 O   0  0  0  0  0  0  0  0  0  0  0  0
   20.0300  -31.7720   35.7750 C   0  0  0  0  0  0  0  0  0  0  0  0
   20.4810  -31.5110   34.4810 C   0  0  0  0  0  0  0  0  0  0  0  0
   20.4050  -32.5040   33.5020 C   0  0  0  0  0  0  0  0  0  0  0  0
   19.8780  -33.7580   33.8180 C   0  0  0  0  0  0  0  0  0  0  0  0
   19.4290  -34.0170   35.1100 C   0  0  0  0  0  0  0  0  0  0  0  0
   18.9250  -35.2660   35.3500 O   0  0  0  0  0  0  0  0  0  0  0  0
   19.5060  -33.0230   36.0890 C   0  0  0  0  0  0  0  0  0  0  0  0
   19.0450  -33.2530   37.4590 C   0  0  0  0  0  0  0  0  0  0  0  0
   18.5630  -34.3280   37.8110 O   0  0  0  0  0  0  0  0  0  0  0  0
   19.1770  -32.1360   38.4230 C   0  0  0  0  0  0  0  0  0  0  0  0
   18.7270  -32.3610   39.7100 O   0  0  0  0  0  0  0  0  0  0  0  0
   18.8790  -28.8130   38.9080 C   0  0  0  0  0  0  0  0  0  0  0  0
   19.0340  -27.6710   39.7000 C   0  0  0  0  0  0  0  0  0  0  0  0
   20.1940  -27.4650   40.4620 C   0  0  0  0  0  0  0  0  0  0  0  0
   20.3670  -26.3240   41.2690 N   0  0  0  0  0  0  0  0  0  0  0  0
   20.0340  -25.0490   40.5980 C   0  0  0  0  0  0  0  0  0  0  0  0
   20.3910  -23.8630   41.5250 C   0  0  0  0  0  0  0  0  0  0  0  0
   19.7040  -23.9430   42.8360 N   0  0  0  0  0  0  0  0  0  0  0  0
   20.1100  -22.8360   43.6980 C   0  0  0  0  0  0  0  0  0  0  0  0
   20.0220  -25.2430   43.4720 C   0  0  0  0  0  0  0  0  0  0  0  0
   19.6740  -26.4520   42.5700 C   0  0  0  0  0  0  0  0  0  0  0  0
   23.5231  -29.8816   42.2314 H   0  0  0  0  0  0  0  0  0  0  0  0
   22.7643  -30.3621   40.6758 H   0  0  0  0  0  0  0  0  0  0  0  0
   24.2697  -29.3821   40.6758 H   0  0  0  0  0  0  0  0  0  0  0  0
   22.2427  -28.0386   42.2494 H   0  0  0  0  0  0  0  0  0  0  0  0
   23.0822  -27.4973   40.7337 H   0  0  0  0  0  0  0  0  0  0  0  0
   21.8396  -30.3434   39.5815 H   0  0  0  0  0  0  0  0  0  0  0  0
   20.8964  -30.5234   34.2318 H   0  0  0  0  0  0  0  0  0  0  0  0
   20.7604  -32.2983   32.4815 H   0  0  0  0  0  0  0  0  0  0  0  0
   19.8177  -34.5402   33.0469 H   0  0  0  0  0  0  0  0  0  0  0  0
   19.2380  -35.7650   36.0800 H   0  0  0  0  0  0  0  0  0  0  0  0
   18.8320  -31.7000   40.3660 H   0  0  0  0  0  0  0  0  0  0  0  0
   17.9616  -28.9430   38.3151 H   0  0  0  0  0  0  0  0  0  0  0  0
   18.2310  -26.9197   39.7261 H   0  0  0  0  0  0  0  0  0  0  0  0
   20.6072  -24.9674   39.6627 H   0  0  0  0  0  0  0  0  0  0  0  0
   18.9572  -25.0254   40.3746 H   0  0  0  0  0  0  0  0  0  0  0  0
   21.4777  -23.8626   41.6953 H   0  0  0  0  0  0  0  0  0  0  0  0
   20.0600  -22.9386   41.0291 H   0  0  0  0  0  0  0  0  0  0  0  0
   18.6960  -23.8740   42.6930 H   0  0  0  0  0  0  0  0  0  0  0  0
   20.0012  -23.1327   44.7516 H   0  0  0  0  0  0  0  0  0  0  0  0
   21.1605  -22.5800   43.4958 H   0  0  0  0  0  0  0  0  0  0  0  0
   19.4741  -21.9615   43.4958 H   0  0  0  0  0  0  0  0  0  0  0  0
   21.0984  -25.2704   43.6970 H   0  0  0  0  0  0  0  0  0  0  0  0
   19.4128  -25.3237   44.3843 H   0  0  0  0  0  0  0  0  0  0  0  0
   19.9948  -27.3807   43.0646 H   0  0  0  0  0  0  0  0  0  0  0  0
   18.5873  -26.4777   42.4011 H   0  0  0  0  0  0  0  0  0  0  0  0
  1  2  1  0
  2  3  1  0
  3  4  2  0
  4  5  1  0
  5  6  1  0
  6  7  1  0
  7  8  1  0
  8  9  2  0
  9 10  1  0
 10 11  2  0
 11 12  1  0
 12 13  1  0
 12 14  2  0
 14 15  1  0
 15 16  2  0
 15 17  1  0
 17 18  1  0
  5 19  2  0
 19 20  1  0
 20 21  2  0
 21 22  1  0
 22 23  1  0
 23 24  1  0
 24 25  1  0
 25 26  1  0
 25 27  1  0
 27 28  1  0
 21  3  1  0
 28 22  1  0
 17  6  2  0
 14  8  1  0
  1 29  1  0
  1 30  1  0
  1 31  1  0
  2 32  1  0
  2 33  1  0
  4 34  1  0
  9 35  1  0
 10 36  1  0
 11 37  1  0
 13 38  1  0
 18 39  1  0
 19 40  1  0
 20 41  1  0
 23 42  1  0
 23 43  1  0
 24 44  1  0
 24 45  1  0
 25 46  1  0
 26 47  1  0
 26 48  1  0
 26 49  1  0
 27 50  1  0
 27 51  1  0
 28 52  1  0
 28 53  1  0
M  CHG  1  25   1
M  END
>  <meeko>  (1) 
{"is_sidechain": [false], "free_energy": -9.321, "intermolecular_energy": -11.501, "internal_energy": -0.696}

$$$$
cand_025_out
     RDKit          3D

 53 56  0  0  0  0  0  0  0  0999 V2000
   23.6560  -29.6350   41.6170 C   0  0  0  0  0  0  0  0  0  0  0  0
   22.9540  -28.2850   41.6070 C   0  0  0  0  0  0  0  0  0  0  0  0
   21.6510  -28.3310   40.8400 C   0  0  0  0  0  0  0  0  0  0  0  0
   21.3670  -29.4690   40.0580 C   0  0  0  0  0  0  0  0  0  0  0  0
   20.1830  -29.5730   39.3170 C   0  0  0  0  0  0  0  0  0  0  0  0
   19.8910  -30.7520   38.4750 C   0  0  0  0  0  0  0  0  0  0  0  0
   19.5300  -31.8700   39.2180 O   0  0  0  0  0  0  0  0  0  0  0  0
   19.2310  -33.0360   38.5600 C   0  0  0  0  0  0  0  0  0  0  0  0
   18.8580  -34.1280   39.3430 C   0  0  0  0  0  0  0  0  0  0  0  0
   18.5420  -35.3460   38.7360 C   0  0  0  0  0  0  0  0  0  0  0  0
   18.5990  -35.4700   37.3470 C   0  0  0  0  0  0  0  0  0  0  0  0
   18.9700  -34.3780   36.5670 C   0  0  0  0  0  0  0  0  0  0  0  0
   19.0050  -34.5690   35.2120 O   0  0  0  0  0  0  0  0  0  0  0  0
   19.2860  -33.1600   37.1740 C   0  0  0  0  0  0  0  0  0  0  0  0
   19.6810  -31.9870   36.3920 C   0  0  0  0  0  0  0  0  0  0  0  0
   19.7610  -32.0210   35.1660 O   0  0  0  0  0  0  0  0  0  0  0  0
   19.9880  -30.7420   37.1320 C   0  0  0  0  0  0  0  0  0  0  0  0
   20.3730  -29.6450   36.3840 O   0  0  0  0  0  0  0  0  0  0  0  0
   19.2840  -28.5020   39.3530 C   0  0  0  0  0  0  0  0  0  0  0  0
   19.5570  -27.3650   40.1190 C   0  0  0  0  0  0  0  0  0  0  0  0
   20.7400  -27.2560   40.8660 C   0  0  0  0  0  0  0  0  0  0  0  0
   21.0310  -26.1210   41.6470 N   0  0  0  0  0  0  0  0  0  0  0  0
   20.3940  -24.8750   41.1690 C   0  0  0  0  0  0  0  0  0  0  0  0
   20.8910  -23.6780   42.0150 C   0  0  0  0  0  0  0  0  0  0  0  0
   20.6290  -23.8610   43.4630 N   0  0  0  0  0  0  0  0  0  0  0  0
   21.1620  -22.7360   44.2280 C   0  0  0  0  0  0  0  0  0  0  0  0
   21.2440  -25.1340   43.9100 C   0  0  0  0  0  0  0  0  0  0  0  0
   20.7650  -26.3520   43.0850 C   0  0  0  0  0  0  0  0  0  0  0  0
   23.8220  -29.9543   42.6565 H   0  0  0  0  0  0  0  0  0  0  0  0
   23.0299  -30.3777   41.1009 H   0  0  0  0  0  0  0  0  0  0  0  0
   24.6236  -29.5490   41.1009 H   0  0  0  0  0  0  0  0  0  0  0  0
   22.7452  -27.9853   42.6446 H   0  0  0  0  0  0  0  0  0  0  0  0
   23.6161  -27.5608   41.1099 H   0  0  0  0  0  0  0  0  0  0  0  0
   22.0927  -30.2952   40.0290 H   0  0  0  0  0  0  0  0  0  0  0  0
   18.8126  -34.0304   40.4377 H   0  0  0  0  0  0  0  0  0  0  0  0
   18.2481  -36.2078   39.3532 H   0  0  0  0  0  0  0  0  0  0  0  0
   18.3511  -36.4293   36.8691 H   0  0  0  0  0  0  0  0  0  0  0  0
   18.9860  -35.4380   34.8610 H   0  0  0  0  0  0  0  0  0  0  0  0
   20.9950  -29.7450   35.6910 H   0  0  0  0  0  0  0  0  0  0  0  0
   18.3515  -28.5551   38.7719 H   0  0  0  0  0  0  0  0  0  0  0  0
   18.8302  -26.5395   40.1366 H   0  0  0  0  0  0  0  0  0  0  0  0
   20.6572  -24.7113   40.1136 H   0  0  0  0  0  0  0  0  0  0  0  0
   19.3020  -24.9628   41.2678 H   0  0  0  0  0  0  0  0  0  0  0  0
   21.9746  -23.5644   41.8638 H   0  0  0  0  0  0  0  0  0  0  0  0
   20.3418  -22.7837   41.6854 H   0  0  0  0  0  0  0  0  0  0  0  0
   19.6220  -23.8990   43.6210 H   0  0  0  0  0  0  0  0  0  0  0  0
   21.0633  -22.9444   45.3036 H   0  0  0  0  0  0  0  0  0  0  0  0
   22.2237  -22.5929   43.9782 H   0  0  0  0  0  0  0  0  0  0  0  0
   20.6003  -21.8238   43.9782 H   0  0  0  0  0  0  0  0  0  0  0  0
   22.3364  -25.0504   43.8118 H   0  0  0  0  0  0  0  0  0  0  0  0
   20.9404  -25.3004   44.9541 H   0  0  0  0  0  0  0  0  0  0  0  0
   21.3042  -27.2518   43.4160 H   0  0  0  0  0  0  0  0  0  0  0  0
   19.6843  -26.4902   43.2363 H   0  0  0  0  0  0  0  0  0  0  0  0
  1  2  1  0
  2  3  1  0
  3  4  2  0
  4  5  1  0
  5  6  1  0
  6  7  1  0
  7  8  1  0
  8  9  2  0
  9 10  1  0
 10 11  2  0
 11 12  1  0
 12 13  1  0
 12 14  2  0
 14 15  1  0
 15 16  2  0
 15 17  1  0
 17 18  1  0
  5 19  2  0
 19 20  1  0
 20 21  2  0
 21 22  1  0
 22 23  1  0
 23 24  1  0
 24 25  1  0
 25 26  1  0
 25 27  1  0
 27 28  1  0
 21  3  1  0
 28 22  1  0
 17  6  2  0
 14  8  1  0
  1 29  1  0
  1 30  1  0
  1 31  1  0
  2 32  1  0
  2 33  1  0
  4 34  1  0
  9 35  1  0
 10 36  1  0
 11 37  1  0
 13 38  1  0
 18 39  1  0
 19 40  1  0
 20 41  1  0
 23 42  1  0
 23 43  1  0
 24 44  1  0
 24 45  1  0
 25 46  1  0
 26 47  1  0
 26 48  1  0
 26 49  1  0
 27 50  1  0
 27 51  1  0
 28 52  1  0
 28 53  1  0
M  CHG  1  25   1
M  END
>  <meeko>  (2) 
{"is_sidechain": [false], "free_energy": -9.089, "intermolecular_energy": -11.489, "internal_energy": -0.421}

$$$$
cand_025_out
     RDKit          3D

 53 56  0  0  0  0  0  0  0  0999 V2000
   17.0940  -26.8190   38.2700 C   0  0  0  0  0  0  0  0  0  0  0  0
   18.1860  -26.5110   39.2830 C   0  0  0  0  0  0  0  0  0  0  0  0
   19.1750  -27.6480   39.4140 C   0  0  0  0  0  0  0  0  0  0  0  0
   19.0150  -28.7810   38.5910 C   0  0  0  0  0  0  0  0  0  0  0  0
   19.8890  -29.8720   38.6660 C   0  0  0  0  0  0  0  0  0  0  0  0
   19.7120  -31.0730   37.8230 C   0  0  0  0  0  0  0  0  0  0  0  0
   20.1460  -30.8840   36.5160 O   0  0  0  0  0  0  0  0  0  0  0  0
   20.0400  -31.9220   35.6260 C   0  0  0  0  0  0  0  0  0  0  0  0
   20.5020  -31.6940   34.3290 C   0  0  0  0  0  0  0  0  0  0  0  0
   20.4220  -32.7090   33.3720 C   0  0  0  0  0  0  0  0  0  0  0  0
   19.8800  -33.9500   33.7130 C   0  0  0  0  0  0  0  0  0  0  0  0
   19.4200  -34.1750   35.0070 C   0  0  0  0  0  0  0  0  0  0  0  0
   18.9010  -35.4130   35.2720 O   0  0  0  0  0  0  0  0  0  0  0  0
   19.5010  -33.1600   35.9640 C   0  0  0  0  0  0  0  0  0  0  0  0
   19.0290  -33.3540   37.3360 C   0  0  0  0  0  0  0  0  0  0  0  0
   18.5340  -34.4160   37.7090 O   0  0  0  0  0  0  0  0  0  0  0  0
   19.1670  -32.2180   38.2760 C   0  0  0  0  0  0  0  0  0  0  0  0
   18.7070  -32.4090   39.5650 O   0  0  0  0  0  0  0  0  0  0  0  0
   20.9280  -29.8230   39.6020 C   0  0  0  0  0  0  0  0  0  0  0  0
   21.0930  -28.7090   40.4300 C   0  0  0  0  0  0  0  0  0  0  0  0
   20.2220  -27.6120   40.3570 C   0  0  0  0  0  0  0  0  0  0  0  0
   20.3740  -26.4780   41.1790 N   0  0  0  0  0  0  0  0  0  0  0  0
   19.6810  -26.5760   42.4820 C   0  0  0  0  0  0  0  0  0  0  0  0
   19.8010  -25.2310   43.2380 C   0  0  0  0  0  0  0  0  0  0  0  0
   21.2110  -24.8190   43.4400 N   0  0  0  0  0  0  0  0  0  0  0  0
   21.2770  -23.5210   44.1070 C   0  0  0  0  0  0  0  0  0  0  0  0
   21.8940  -24.7650   42.1250 C   0  0  0  0  0  0  0  0  0  0  0  0
   21.7940  -26.0970   41.3440 C   0  0  0  0  0  0  0  0  0  0  0  0
   16.1660  -27.0807   38.7994 H   0  0  0  0  0  0  0  0  0  0  0  0
   16.9193  -25.9351   37.6390 H   0  0  0  0  0  0  0  0  0  0  0  0
   17.4069  -27.6639   37.6390 H   0  0  0  0  0  0  0  0  0  0  0  0
   18.7244  -25.6074   38.9610 H   0  0  0  0  0  0  0  0  0  0  0  0
   17.7083  -26.3619   40.2626 H   0  0  0  0  0  0  0  0  0  0  0  0
   18.1829  -28.8086   37.8721 H   0  0  0  0  0  0  0  0  0  0  0  0
   20.9287  -30.7163   34.0604 H   0  0  0  0  0  0  0  0  0  0  0  0
   20.7861  -32.5304   32.3495 H   0  0  0  0  0  0  0  0  0  0  0  0
   19.8167  -34.7489   32.9595 H   0  0  0  0  0  0  0  0  0  0  0  0
   19.2880  -36.1750   34.8870 H   0  0  0  0  0  0  0  0  0  0  0  0
   17.7890  -32.5040   39.7260 H   0  0  0  0  0  0  0  0  0  0  0  0
   21.6232  -30.6712   39.6872 H   0  0  0  0  0  0  0  0  0  0  0  0
   21.9220  -28.6923   41.1529 H   0  0  0  0  0  0  0  0  0  0  0  0
   18.6189  -26.8082   42.3149 H   0  0  0  0  0  0  0  0  0  0  0  0
   20.1432  -27.3739   43.0817 H   0  0  0  0  0  0  0  0  0  0  0  0
   19.2853  -24.4522   42.6570 H   0  0  0  0  0  0  0  0  0  0  0  0
   19.3450  -25.3626   44.2303 H   0  0  0  0  0  0  0  0  0  0  0  0
   21.6790  -25.5020   44.0360 H   0  0  0  0  0  0  0  0  0  0  0  0
   21.2695  -23.6681   45.1971 H   0  0  0  0  0  0  0  0  0  0  0  0
   22.2026  -23.0044   43.8131 H   0  0  0  0  0  0  0  0  0  0  0  0
   20.4086  -22.9131   43.8131 H   0  0  0  0  0  0  0  0  0  0  0  0
   21.4338  -23.9683   41.5221 H   0  0  0  0  0  0  0  0  0  0  0  0
   22.9601  -24.5695   42.3126 H   0  0  0  0  0  0  0  0  0  0  0  0
   22.2564  -25.9747   40.3534 H   0  0  0  0  0  0  0  0  0  0  0  0
   22.3181  -26.8856   41.9039 H   0  0  0  0  0  0  0  0  0  0  0  0
  1  2  1  0
  2  3  1  0
  3  4  2  0
  4  5  1  0
  5  6  1  0
  6  7  1  0
  7  8  1  0
  8  9  2  0
  9 10  1  0
 10 11  2  0
 11 12  1  0
 12 13  1  0
 12 14  2  0
 14 15  1  0
 15 16  2  0
 15 17  1  0
 17 18  1  0
  5 19  2  0
 19 20  1  0
 20 21  2  0
 21 22  1  0
 22 23  1  0
 23 24  1  0
 24 25  1  0
 25 26  1  0
 25 27  1  0
 27 28  1  0
 21  3  1  0
 28 22  1  0
 17  6  2  0
 14  8  1  0
  1 29  1  0
  1 30  1  0
  1 31  1  0
  2 32  1  0
  2 33  1  0
  4 34  1  0
  9 35  1  0
 10 36  1  0
 11 37  1  0
 13 38  1  0
 18 39  1  0
 19 40  1  0
 20 41  1  0
 23 42  1  0
 23 43  1  0
 24 44  1  0
 24 45  1  0
 25 46  1  0
 26 47  1  0
 26 48  1  0
 26 49  1  0
 27 50  1  0
 27 51  1  0
 28 52  1  0
 28 53  1  0
M  CHG  1  25   1
M  END
>  <meeko>  (3) 
{"is_sidechain": [false], "free_energy": -8.96, "intermolecular_energy": -11.13, "internal_energy": -0.622}

$$$$
cand_025_out
     RDKit          3D

 53 56  0  0  0  0  0  0  0  0999 V2000
   23.7320  -28.7470   42.5860 C   0  0  0  0  0  0  0  0  0  0  0  0
   23.0870  -27.3700   42.5850 C   0  0  0  0  0  0  0  0  0  0  0  0
   21.8510  -27.3230   41.7130 C   0  0  0  0  0  0  0  0  0  0  0  0
   21.6240  -28.3790   40.8070 C   0  0  0  0  0  0  0  0  0  0  0  0
   20.5050  -28.3950   39.9650 C   0  0  0  0  0  0  0  0  0  0  0  0
   20.2740  -29.4860   38.9950 C   0  0  0  0  0  0  0  0  0  0  0  0
   19.5660  -30.5520   39.5390 O   0  0  0  0  0  0  0  0  0  0  0  0
   19.2820  -31.6330   38.7460 C   0  0  0  0  0  0  0  0  0  0  0  0
   18.5560  -32.6730   39.3270 C   0  0  0  0  0  0  0  0  0  0  0  0
   18.2340  -33.8050   38.5750 C   0  0  0  0  0  0  0  0  0  0  0  0
   18.6380  -33.8960   37.2420 C   0  0  0  0  0  0  0  0  0  0  0  0
   19.3620  -32.8570   36.6630 C   0  0  0  0  0  0  0  0  0  0  0  0
   19.7260  -33.0120   35.3530 O   0  0  0  0  0  0  0  0  0  0  0  0
   19.6830  -31.7250   37.4160 C   0  0  0  0  0  0  0  0  0  0  0  0
   20.4420  -30.6100   36.8470 C   0  0  0  0  0  0  0  0  0  0  0  0
   20.8380  -30.6210   35.6830 O   0  0  0  0  0  0  0  0  0  0  0  0
   20.7240  -29.4530   37.7270 C   0  0  0  0  0  0  0  0  0  0  0  0
   21.4520  -28.4120   37.1820 O   0  0  0  0  0  0  0  0  0  0  0  0
   19.6140  -27.3180   40.0280 C   0  0  0  0  0  0  0  0  0  0  0  0
   19.8320  -26.2610   40.9170 C   0  0  0  0  0  0  0  0  0  0  0  0
   20.9500  -26.2410   41.7650 C   0  0  0  0  0  0  0  0  0  0  0  0
   21.1850  -25.1880   42.6710 N   0  0  0  0  0  0  0  0  0  0  0  0
   21.0630  -23.8390   42.0780 C   0  0  0  0  0  0  0  0  0  0  0  0
   21.4740  -22.7720   43.1210 C   0  0  0  0  0  0  0  0  0  0  0  0
   20.6700  -22.8570   44.3640 N   0  0  0  0  0  0  0  0  0  0  0  0
   21.1260  -21.8710   45.3400 C   0  0  0  0  0  0  0  0  0  0  0  0
   20.7780  -24.2280   44.9190 C   0  0  0  0  0  0  0  0  0  0  0  0
   20.3710  -25.3190   43.8990 C   0  0  0  0  0  0  0  0  0  0  0  0
   23.8872  -29.0784   43.6233 H   0  0  0  0  0  0  0  0  0  0  0  0
   23.0743  -29.4603   42.0677 H   0  0  0  0  0  0  0  0  0  0  0  0
   24.7010  -28.6984   42.0677 H   0  0  0  0  0  0  0  0  0  0  0  0
   22.8045  -27.1095   43.6157 H   0  0  0  0  0  0  0  0  0  0  0  0
   23.8164  -26.6537   42.1790 H   0  0  0  0  0  0  0  0  0  0  0  0
   22.3429  -29.2102   40.7603 H   0  0  0  0  0  0  0  0  0  0  0  0
   18.2372  -32.6015   40.3773 H   0  0  0  0  0  0  0  0  0  0  0  0
   17.6618  -34.6251   39.0333 H   0  0  0  0  0  0  0  0  0  0  0  0
   18.3847  -34.7875   36.6496 H   0  0  0  0  0  0  0  0  0  0  0  0
   19.2180  -32.6100   34.6750 H   0  0  0  0  0  0  0  0  0  0  0  0
   21.3070  -27.5340   37.4760 H   0  0  0  0  0  0  0  0  0  0  0  0
   18.7321  -27.3027   39.3707 H   0  0  0  0  0  0  0  0  0  0  0  0
   19.1133  -25.4290   40.9524 H   0  0  0  0  0  0  0  0  0  0  0  0
   21.7213  -23.7646   41.1999 H   0  0  0  0  0  0  0  0  0  0  0  0
   20.0200  -23.6679   41.7731 H   0  0  0  0  0  0  0  0  0  0  0  0
   22.5343  -22.9169   43.3756 H   0  0  0  0  0  0  0  0  0  0  0  0
   21.2981  -21.7820   42.6750 H   0  0  0  0  0  0  0  0  0  0  0  0
   19.6940  -22.6560   44.1480 H   0  0  0  0  0  0  0  0  0  0  0  0
   20.9496  -22.2525   46.3565 H   0  0  0  0  0  0  0  0  0  0  0  0
   22.2011  -21.6859   45.1993 H   0  0  0  0  0  0  0  0  0  0  0  0
   20.5708  -20.9319   45.1993 H   0  0  0  0  0  0  0  0  0  0  0  0
   21.8202  -24.4030   45.2244 H   0  0  0  0  0  0  0  0  0  0  0  0
   20.0872  -24.2965   45.7723 H   0  0  0  0  0  0  0  0  0  0  0  0
   20.5360  -26.3123   44.3419 H   0  0  0  0  0  0  0  0  0  0  0  0
   19.3079  -25.1980   43.6437 H   0  0  0  0  0  0  0  0  0  0  0  0
  1  2  1  0
  2  3  1  0
  3  4  2  0
  4  5  1  0
  5  6  1  0
  6  7  1  0
  7  8  1  0
  8  9  2  0
  9 10  1  0
 10 11  2  0
 11 12  1  0
 12 13  1  0
 12 14  2  0
 14 15  1  0
 15 16  2  0
 15 17  1  0
 17 18  1  0
  5 19  2  0
 19 20  1  0
 20 21  2  0
 21 22  1  0
 22 23  1  0
 23 24  1  0
 24 25  1  0
 25 26  1  0
 25 27  1  0
 27 28  1  0
 21  3  1  0
 28 22  1  0
 17  6  2  0
 14  8  1  0
  1 29  1  0
  1 30  1  0
  1 31  1  0
  2 32  1  0
  2 33  1  0
  4 34  1  0
  9 35  1  0
 10 36  1  0
 11 37  1  0
 13 38  1  0
 18 39  1  0
 19 40  1  0
 20 41  1  0
 23 42  1  0
 23 43  1  0
 24 44  1  0
 24 45  1  0
 25 46  1  0
 26 47  1  0
 26 48  1  0
 26 49  1  0
 27 50  1  0
 27 51  1  0
 28 52  1  0
 28 53  1  0
M  CHG  1  25   1
M  END
>  <meeko>  (4) 
{"is_sidechain": [false], "free_energy": -8.883, "intermolecular_energy": -10.957, "internal_energy": -0.7}

$$$$
cand_025_out
     RDKit          3D

 53 56  0  0  0  0  0  0  0  0999 V2000
   17.6960  -25.6490   38.6810 C   0  0  0  0  0  0  0  0  0  0  0  0
   19.2110  -25.6710   38.5400 C   0  0  0  0  0  0  0  0  0  0  0  0
   19.8120  -26.9460   39.0890 C   0  0  0  0  0  0  0  0  0  0  0  0
   19.5750  -28.1540   38.4030 C   0  0  0  0  0  0  0  0  0  0  0  0
   20.0950  -29.3710   38.8620 C   0  0  0  0  0  0  0  0  0  0  0  0
   19.8290  -30.6460   38.1620 C   0  0  0  0  0  0  0  0  0  0  0  0
   19.4400  -31.6650   39.0230 O   0  0  0  0  0  0  0  0  0  0  0  0
   19.1610  -32.9030   38.5040 C   0  0  0  0  0  0  0  0  0  0  0  0
   18.7600  -33.8910   39.4020 C   0  0  0  0  0  0  0  0  0  0  0  0
   18.4620  -35.1760   38.9400 C   0  0  0  0  0  0  0  0  0  0  0  0
   18.5670  -35.4690   37.5790 C   0  0  0  0  0  0  0  0  0  0  0  0
   18.9670  -34.4810   36.6840 C   0  0  0  0  0  0  0  0  0  0  0  0
   19.0490  -34.8370   35.3650 O   0  0  0  0  0  0  0  0  0  0  0  0
   19.2640  -33.1970   37.1470 C   0  0  0  0  0  0  0  0  0  0  0  0
   19.6890  -32.1290   36.2410 C   0  0  0  0  0  0  0  0  0  0  0  0
   19.8110  -32.3130   35.0320 O   0  0  0  0  0  0  0  0  0  0  0  0
   19.9730  -30.8010   36.8320 C   0  0  0  0  0  0  0  0  0  0  0  0
   20.3850  -29.8040   35.9680 O   0  0  0  0  0  0  0  0  0  0  0  0
   20.8480  -29.3670   40.0400 C   0  0  0  0  0  0  0  0  0  0  0  0
   21.0850  -28.1760   40.7340 C   0  0  0  0  0  0  0  0  0  0  0  0
   20.5690  -26.9540   40.2780 C   0  0  0  0  0  0  0  0  0  0  0  0
   20.7990  -25.7430   40.9590 N   0  0  0  0  0  0  0  0  0  0  0  0
   19.6780  -25.3080   41.8210 C   0  0  0  0  0  0  0  0  0  0  0  0
   19.9840  -23.9090   42.4080 C   0  0  0  0  0  0  0  0  0  0  0  0
   21.2540  -23.8810   43.1710 N   0  0  0  0  0  0  0  0  0  0  0  0
   21.5310  -22.5320   43.6600 C   0  0  0  0  0  0  0  0  0  0  0  0
   22.3550  -24.3560   42.3000 C   0  0  0  0  0  0  0  0  0  0  0  0
   22.0810  -25.7550   41.6990 C   0  0  0  0  0  0  0  0  0  0  0  0
   17.4270  -25.6451   39.7476 H   0  0  0  0  0  0  0  0  0  0  0  0
   17.2959  -24.7450   38.1987 H   0  0  0  0  0  0  0  0  0  0  0  0
   17.2699  -26.5411   38.1987 H   0  0  0  0  0  0  0  0  0  0  0  0
   19.4699  -25.5864   37.4743 H   0  0  0  0  0  0  0  0  0  0  0  0
   19.6185  -24.8273   39.1163 H   0  0  0  0  0  0  0  0  0  0  0  0
   18.9677  -28.1409   37.4860 H   0  0  0  0  0  0  0  0  0  0  0  0
   18.6781  -33.6593   40.4742 H   0  0  0  0  0  0  0  0  0  0  0  0
   18.1450  -35.9558   39.6481 H   0  0  0  0  0  0  0  0  0  0  0  0
   18.3337  -36.4802   37.2142 H   0  0  0  0  0  0  0  0  0  0  0  0
   19.4040  -34.2370   34.7390 H   0  0  0  0  0  0  0  0  0  0  0  0
   20.8250  -30.0260   35.1710 H   0  0  0  0  0  0  0  0  0  0  0  0
   21.2589  -30.3117   40.4256 H   0  0  0  0  0  0  0  0  0  0  0  0
   21.6871  -28.1980   41.6543 H   0  0  0  0  0  0  0  0  0  0  0  0
   18.7551  -25.2603   41.2244 H   0  0  0  0  0  0  0  0  0  0  0  0
   19.5497  -26.0278   42.6428 H   0  0  0  0  0  0  0  0  0  0  0  0
   20.0527  -23.1866   41.5813 H   0  0  0  0  0  0  0  0  0  0  0  0
   19.1704  -23.6517   43.1022 H   0  0  0  0  0  0  0  0  0  0  0  0
   21.1740  -24.4970   43.9810 H   0  0  0  0  0  0  0  0  0  0  0  0
   21.5307  -22.5335   44.7600 H   0  0  0  0  0  0  0  0  0  0  0  0
   22.5152  -22.2042   43.2940 H   0  0  0  0  0  0  0  0  0  0  0  0
   20.7556  -21.8429   43.2940 H   0  0  0  0  0  0  0  0  0  0  0  0
   22.4862  -23.6389   41.4763 H   0  0  0  0  0  0  0  0  0  0  0  0
   23.2597  -24.4330   42.9210 H   0  0  0  0  0  0  0  0  0  0  0  0
   22.8967  -26.0227   41.0112 H   0  0  0  0  0  0  0  0  0  0  0  0
   22.0230  -26.4935   42.5122 H   0  0  0  0  0  0  0  0  0  0  0  0
  1  2  1  0
  2  3  1  0
  3  4  2  0
  4  5  1  0
  5  6  1  0
  6  7  1  0
  7  8  1  0
  8  9  2  0
  9 10  1  0
 10 11  2  0
 11 12  1  0
 12 13  1  0
 12 14  2  0
 14 15  1  0
 15 16  2  0
 15 17  1  0
 17 18  1  0
  5 19  2  0
 19 20  1  0
 20 21  2  0
 21 22  1  0
 22 23  1  0
 23 24  1  0
 24 25  1  0
 25 26  1  0
 25 27  1  0
 27 28  1  0
 21  3  1  0
 28 22  1  0
 17  6  2  0
 14  8  1  0
  1 29  1  0
  1 30  1  0
  1 31  1  0
  2 32  1  0
  2 33  1  0
  4 34  1  0
  9 35  1  0
 10 36  1  0
 11 37  1  0
 13 38  1  0
 18 39  1  0
 19 40  1  0
 20 41  1  0
 23 42  1  0
 23 43  1  0
 24 44  1  0
 24 45  1  0
 25 46  1  0
 26 47  1  0
 26 48  1  0
 26 49  1  0
 27 50  1  0
 27 51  1  0
 28 52  1  0
 28 53  1  0
M  CHG  1  25   1
M  END
>  <meeko>  (5) 
{"is_sidechain": [false], "free_energy": -8.471, "intermolecular_energy": -10.856, "internal_energy": -0.293}

$$$$
cand_025_out
     RDKit          3D

 53 56  0  0  0  0  0  0  0  0999 V2000
   24.3470  -27.1380   43.8640 C   0  0  0  0  0  0  0  0  0  0  0  0
   23.8080  -25.8400   43.2800 C   0  0  0  0  0  0  0  0  0  0  0  0
   22.4050  -26.0030   42.7400 C   0  0  0  0  0  0  0  0  0  0  0  0
   22.2020  -26.8460   41.6280 C   0  0  0  0  0  0  0  0  0  0  0  0
   20.9310  -27.0340   41.0730 C   0  0  0  0  0  0  0  0  0  0  0  0
   20.7160  -27.8960   39.8910 C   0  0  0  0  0  0  0  0  0  0  0  0
   20.4300  -29.2140   40.2290 O   0  0  0  0  0  0  0  0  0  0  0  0
   20.2070  -30.1230   39.2270 C   0  0  0  0  0  0  0  0  0  0  0  0
   19.9080  -31.4300   39.6110 C   0  0  0  0  0  0  0  0  0  0  0  0
   19.6720  -32.4060   38.6390 C   0  0  0  0  0  0  0  0  0  0  0  0
   19.7350  -32.0730   37.2850 C   0  0  0  0  0  0  0  0  0  0  0  0
   20.0330  -30.7680   36.9040 C   0  0  0  0  0  0  0  0  0  0  0  0
   20.0790  -30.5110   35.5610 O   0  0  0  0  0  0  0  0  0  0  0  0
   20.2690  -29.7920   37.8760 C   0  0  0  0  0  0  0  0  0  0  0  0
   20.5850  -28.4080   37.5190 C   0  0  0  0  0  0  0  0  0  0  0  0
   20.6650  -28.0410   36.3480 O   0  0  0  0  0  0  0  0  0  0  0  0
   20.8100  -27.4490   38.6250 C   0  0  0  0  0  0  0  0  0  0  0  0
   21.1210  -26.1490   38.2760 O   0  0  0  0  0  0  0  0  0  0  0  0
   19.8530  -26.3450   41.6380 C   0  0  0  0  0  0  0  0  0  0  0  0
   20.0410  -25.5010   42.7370 C   0  0  0  0  0  0  0  0  0  0  0  0
   21.3120  -25.3100   43.2990 C   0  0  0  0  0  0  0  0  0  0  0  0
   21.5220  -24.4680   44.4080 N   0  0  0  0  0  0  0  0  0  0  0  0
   20.7880  -23.1850   44.3440 C   0  0  0  0  0  0  0  0  0  0  0  0
   21.1990  -22.2890   45.5370 C   0  0  0  0  0  0  0  0  0  0  0  0
   20.9620  -22.9460   46.8450 N   0  0  0  0  0  0  0  0  0  0  0  0
   21.4130  -22.0900   47.9390 C   0  0  0  0  0  0  0  0  0  0  0  0
   21.6760  -24.2450   46.8710 C   0  0  0  0  0  0  0  0  0  0  0  0
   21.2850  -25.1660   45.6910 C   0  0  0  0  0  0  0  0  0  0  0  0
   24.3242  -27.0832   44.9624 H   0  0  0  0  0  0  0  0  0  0  0  0
   23.7237  -27.9789   43.5258 H   0  0  0  0  0  0  0  0  0  0  0  0
   25.3826  -27.2900   43.5258 H   0  0  0  0  0  0  0  0  0  0  0  0
   23.7986  -25.0726   44.0681 H   0  0  0  0  0  0  0  0  0  0  0  0
   24.4616  -25.5448   42.4459 H   0  0  0  0  0  0  0  0  0  0  0  0
   23.0633  -27.3684   41.1861 H   0  0  0  0  0  0  0  0  0  0  0  0
   19.8580  -31.6924   40.6781 H   0  0  0  0  0  0  0  0  0  0  0  0
   19.4365  -33.4371   38.9412 H   0  0  0  0  0  0  0  0  0  0  0  0
   19.5493  -32.8412   36.5199 H   0  0  0  0  0  0  0  0  0  0  0  0
   20.6880  -29.8830   35.2240 H   0  0  0  0  0  0  0  0  0  0  0  0
   21.0980  -25.4710   38.9220 H   0  0  0  0  0  0  0  0  0  0  0  0
   18.8459  -26.4684   41.2131 H   0  0  0  0  0  0  0  0  0  0  0  0
   19.1757  -24.9769   43.1690 H   0  0  0  0  0  0  0  0  0  0  0  0
   21.0295  -22.6722   43.4013 H   0  0  0  0  0  0  0  0  0  0  0  0
   19.7067  -23.3811   44.3912 H   0  0  0  0  0  0  0  0  0  0  0  0
   22.2698  -22.0529   45.4491 H   0  0  0  0  0  0  0  0  0  0  0  0
   20.5816  -21.3793   45.5017 H   0  0  0  0  0  0  0  0  0  0  0  0
   19.9620  -23.1070   46.9650 H   0  0  0  0  0  0  0  0  0  0  0  0
   21.1641  -22.5624   48.9007 H   0  0  0  0  0  0  0  0  0  0  0  0
   22.5019  -21.9501   47.8701 H   0  0  0  0  0  0  0  0  0  0  0  0
   20.9127  -21.1128   47.8701 H   0  0  0  0  0  0  0  0  0  0  0  0
   22.7580  -24.0527   46.8235 H   0  0  0  0  0  0  0  0  0  0  0  0
   21.3943  -24.7599   47.8013 H   0  0  0  0  0  0  0  0  0  0  0  0
   21.8934  -26.0818   45.7259 H   0  0  0  0  0  0  0  0  0  0  0  0
   20.2189  -25.4248   45.7712 H   0  0  0  0  0  0  0  0  0  0  0  0
  1  2  1  0
  2  3  1  0
  3  4  2  0
  4  5  1  0
  5  6  1  0
  6  7  1  0
  7  8  1  0
  8  9  2  0
  9 10  1  0
 10 11  2  0
 11 12  1  0
 12 13  1  0
 12 14  2  0
 14 15  1  0
 15 16  2  0
 15 17  1  0
 17 18  1  0
  5 19  2  0
 19 20  1  0
 20 21  2  0
 21 22  1  0
 22 23  1  0
 23 24  1  0
 24 25  1  0
 25 26  1  0
 25 27  1  0
 27 28  1  0
 21  3  1  0
 28 22  1  0
 17  6  2  0
 14  8  1  0
  1 29  1  0
  1 30  1  0
  1 31  1  0
  2 32  1  0
  2 33  1  0
  4 34  1  0
  9 35  1  0
 10 36  1  0
 11 37  1  0
 13 38  1  0
 18 39  1  0
 19 40  1  0
 20 41  1  0
 23 42  1  0
 23 43  1  0
 24 44  1  0
 24 45  1  0
 25 46  1  0
 26 47  1  0
 26 48  1  0
 26 49  1  0
 27 50  1  0
 27 51  1  0
 28 52  1  0
 28 53  1  0
M  CHG  1  25   1
M  END
>  <meeko>  (6) 
{"is_sidechain": [false], "free_energy": -8.42, "intermolecular_energy": -10.386, "internal_energy": -0.699}

$$$$
cand_025_out
     RDKit          3D

 53 56  0  0  0  0  0  0  0  0999 V2000
   19.7170  -32.2000   39.7030 C   0  0  0  0  0  0  0  0  0  0  0  0
   19.3010  -31.2840   38.5620 C   0  0  0  0  0  0  0  0  0  0  0  0
   20.0600  -29.9760   38.5800 C   0  0  0  0  0  0  0  0  0  0  0  0
   20.4170  -29.4190   39.8250 C   0  0  0  0  0  0  0  0  0  0  0  0
   21.1140  -28.2070   39.9130 C   0  0  0  0  0  0  0  0  0  0  0  0
   21.4690  -27.6050   41.2160 C   0  0  0  0  0  0  0  0  0  0  0  0
   20.5960  -26.5940   41.6000 O   0  0  0  0  0  0  0  0  0  0  0  0
   20.8090  -25.9500   42.7910 C   0  0  0  0  0  0  0  0  0  0  0  0
   19.9000  -24.9530   43.1450 C   0  0  0  0  0  0  0  0  0  0  0  0
   20.0610  -24.2560   44.3450 C   0  0  0  0  0  0  0  0  0  0  0  0
   21.1310  -24.5570   45.1900 C   0  0  0  0  0  0  0  0  0  0  0  0
   22.0370  -25.5520   44.8350 C   0  0  0  0  0  0  0  0  0  0  0  0
   23.0610  -25.7950   45.7090 O   0  0  0  0  0  0  0  0  0  0  0  0
   21.8750  -26.2490   43.6350 C   0  0  0  0  0  0  0  0  0  0  0  0
   22.8040  -27.3030   43.2240 C   0  0  0  0  0  0  0  0  0  0  0  0
   23.7730  -27.6190   43.9110 O   0  0  0  0  0  0  0  0  0  0  0  0
   22.5400  -27.9860   41.9370 C   0  0  0  0  0  0  0  0  0  0  0  0
   23.4310  -28.9710   41.5530 O   0  0  0  0  0  0  0  0  0  0  0  0
   21.4360  -27.5410   38.7260 C   0  0  0  0  0  0  0  0  0  0  0  0
   21.0810  -28.0790   37.4850 C   0  0  0  0  0  0  0  0  0  0  0  0
   20.3860  -29.2940   37.3900 C   0  0  0  0  0  0  0  0  0  0  0  0
   20.0240  -29.8540   36.1500 N   0  0  0  0  0  0  0  0  0  0  0  0
   19.7780  -28.8610   35.0830 C   0  0  0  0  0  0  0  0  0  0  0  0
   19.2570  -29.5770   33.8140 C   0  0  0  0  0  0  0  0  0  0  0  0
   20.1900  -30.6230   33.3310 N   0  0  0  0  0  0  0  0  0  0  0  0
   19.6360  -31.3090   32.1670 C   0  0  0  0  0  0  0  0  0  0  0  0
   20.4500  -31.5850   34.4290 C   0  0  0  0  0  0  0  0  0  0  0  0
   20.9750  -30.9000   35.7130 C   0  0  0  0  0  0  0  0  0  0  0  0
   19.4956  -31.7125   40.6639 H   0  0  0  0  0  0  0  0  0  0  0  0
   19.1603  -33.1463   39.6351 H   0  0  0  0  0  0  0  0  0  0  0  0
   20.7959  -32.4035   39.6351 H   0  0  0  0  0  0  0  0  0  0  0  0
   19.4961  -31.7947   37.6075 H   0  0  0  0  0  0  0  0  0  0  0  0
   18.2311  -31.0577   38.6808 H   0  0  0  0  0  0  0  0  0  0  0  0
   20.1418  -29.9486   40.7490 H   0  0  0  0  0  0  0  0  0  0  0  0
   19.0568  -24.7157   42.4796 H   0  0  0  0  0  0  0  0  0  0  0  0
   19.3444  -23.4696   44.6243 H   0  0  0  0  0  0  0  0  0  0  0  0
   21.2577  -24.0084   46.1350 H   0  0  0  0  0  0  0  0  0  0  0  0
   23.9030  -25.4080   45.5640 H   0  0  0  0  0  0  0  0  0  0  0  0
   23.5960  -29.1250   40.6440 H   0  0  0  0  0  0  0  0  0  0  0  0
   21.9747  -26.5829   38.7691 H   0  0  0  0  0  0  0  0  0  0  0  0
   21.3519  -27.5392   36.5656 H   0  0  0  0  0  0  0  0  0  0  0  0
   19.0277  -28.1336   35.4264 H   0  0  0  0  0  0  0  0  0  0  0  0
   20.7174  -28.3395   34.8472 H   0  0  0  0  0  0  0  0  0  0  0  0
   18.2895  -30.0464   34.0455 H   0  0  0  0  0  0  0  0  0  0  0  0
   19.1595  -28.8223   33.0197 H   0  0  0  0  0  0  0  0  0  0  0  0
   21.0680  -30.1870   33.0490 H   0  0  0  0  0  0  0  0  0  0  0  0
   18.9775  -32.1244   32.5010 H   0  0  0  0  0  0  0  0  0  0  0  0
   19.0578  -30.5954   31.5616 H   0  0  0  0  0  0  0  0  0  0  0  0
   20.4553  -31.7240   31.5616 H   0  0  0  0  0  0  0  0  0  0  0  0
   19.5122  -32.1080   34.6677 H   0  0  0  0  0  0  0  0  0  0  0  0
   21.2281  -32.2812   34.0827 H   0  0  0  0  0  0  0  0  0  0  0  0
   21.0824  -31.6511   36.5094 H   0  0  0  0  0  0  0  0  0  0  0  0
   21.9511  -30.4379   35.5040 H   0  0  0  0  0  0  0  0  0  0  0  0
  1  2  1  0
  2  3  1  0
  3  4  2  0
  4  5  1  0
  5  6  1  0
  6  7  1  0
  7  8  1  0
  8  9  2  0
  9 10  1  0
 10 11  2  0
 11 12  1  0
 12 13  1  0
 12 14  2  0
 14 15  1  0
 15 16  2  0
 15 17  1  0
 17 18  1  0
  5 19  2  0
 19 20  1  0
 20 21  2  0
 21 22  1  0
 22 23  1  0
 23 24  1  0
 24 25  1  0
 25 26  1  0
 25 27  1  0
 27 28  1  0
 21  3  1  0
 28 22  1  0
 17  6  2  0
 14  8  1  0
  1 29  1  0
  1 30  1  0
  1 31  1  0
  2 32  1  0
  2 33  1  0
  4 34  1  0
  9 35  1  0
 10 36  1  0
 11 37  1  0
 13 38  1  0
 18 39  1  0
 19 40  1  0
 20 41  1  0
 23 42  1  0
 23 43  1  0
 24 44  1  0
 24 45  1  0
 25 46  1  0
 26 47  1  0
 26 48  1  0
 26 49  1  0
 27 50  1  0
 27 51  1  0
 28 52  1  0
 28 53  1  0
M  CHG  1  25   1
M  END
>  <meeko>  (7) 
{"is_sidechain": [false], "free_energy": -8.412, "intermolecular_energy": -10.558, "internal_energy": -0.518}

$$$$
cand_025_out
     RDKit          3D

 53 56  0  0  0  0  0  0  0  0999 V2000
   17.3440  -27.1240   38.2000 C   0  0  0  0  0  0  0  0  0  0  0  0
   17.9710  -28.3310   38.8800 C   0  0  0  0  0  0  0  0  0  0  0  0
   19.3900  -28.0570   39.3250 C   0  0  0  0  0  0  0  0  0  0  0  0
   19.6000  -27.4640   40.5870 C   0  0  0  0  0  0  0  0  0  0  0  0
   20.8860  -27.1750   41.0570 C   0  0  0  0  0  0  0  0  0  0  0  0
   21.1120  -26.5300   42.3670 C   0  0  0  0  0  0  0  0  0  0  0  0
   20.1540  -25.5680   42.6680 O   0  0  0  0  0  0  0  0  0  0  0  0
   20.2440  -24.8910   43.8570 C   0  0  0  0  0  0  0  0  0  0  0  0
   19.2540  -23.9460   44.1250 C   0  0  0  0  0  0  0  0  0  0  0  0
   19.2860  -23.2200   45.3180 C   0  0  0  0  0  0  0  0  0  0  0  0
   20.3100  -23.4400   46.2420 C   0  0  0  0  0  0  0  0  0  0  0  0
   21.2970  -24.3840   45.9730 C   0  0  0  0  0  0  0  0  0  0  0  0
   22.2700  -24.5490   46.9210 O   0  0  0  0  0  0  0  0  0  0  0  0
   21.2630  -25.1100   44.7800 C   0  0  0  0  0  0  0  0  0  0  0  0
   22.2810  -26.1120   44.4570 C   0  0  0  0  0  0  0  0  0  0  0  0
   23.2160  -26.3560   45.2170 O   0  0  0  0  0  0  0  0  0  0  0  0
   22.1500  -26.8320   43.1700 C   0  0  0  0  0  0  0  0  0  0  0  0
   23.1230  -27.7660   42.8700 O   0  0  0  0  0  0  0  0  0  0  0  0
   21.9750  -27.4740   40.2310 C   0  0  0  0  0  0  0  0  0  0  0  0
   21.7810  -28.0560   38.9740 C   0  0  0  0  0  0  0  0  0  0  0  0
   20.4940  -28.3500   38.4990 C   0  0  0  0  0  0  0  0  0  0  0  0
   20.2770  -28.9390   37.2390 N   0  0  0  0  0  0  0  0  0  0  0  0
   20.5390  -28.0400   36.0940 C   0  0  0  0  0  0  0  0  0  0  0  0
   20.1390  -28.7450   34.7760 C   0  0  0  0  0  0  0  0  0  0  0  0
   20.8480  -30.0320   34.5840 N   0  0  0  0  0  0  0  0  0  0  0  0
   20.4020  -30.6880   33.3570 C   0  0  0  0  0  0  0  0  0  0  0  0
   20.6020  -30.9010   35.7600 C   0  0  0  0  0  0  0  0  0  0  0  0
   20.9950  -30.2260   37.0950 C   0  0  0  0  0  0  0  0  0  0  0  0
   16.9790  -26.4214   38.9637 H   0  0  0  0  0  0  0  0  0  0  0  0
   18.0967  -26.6247   37.5722 H   0  0  0  0  0  0  0  0  0  0  0  0
   16.5027  -27.4528   37.5722 H   0  0  0  0  0  0  0  0  0  0  0  0
   17.3675  -28.5957   39.7607 H   0  0  0  0  0  0  0  0  0  0  0  0
   17.9964  -29.1557   38.1525 H   0  0  0  0  0  0  0  0  0  0  0  0
   18.7316  -27.2226   41.2175 H   0  0  0  0  0  0  0  0  0  0  0  0
   18.4479  -23.7723   43.3969 H   0  0  0  0  0  0  0  0  0  0  0  0
   18.5048  -22.4751   45.5297 H   0  0  0  0  0  0  0  0  0  0  0  0
   20.3365  -22.8680   47.1812 H   0  0  0  0  0  0  0  0  0  0  0  0
   22.8970  -25.2410   46.8340 H   0  0  0  0  0  0  0  0  0  0  0  0
   23.5920  -27.7120   42.0610 H   0  0  0  0  0  0  0  0  0  0  0  0
   22.9956  -27.2488   40.5741 H   0  0  0  0  0  0  0  0  0  0  0  0
   22.6539  -28.2876   38.3460 H   0  0  0  0  0  0  0  0  0  0  0  0
   19.9490  -27.1189   36.2097 H   0  0  0  0  0  0  0  0  0  0  0  0
   21.6100  -27.7910   36.0637 H   0  0  0  0  0  0  0  0  0  0  0  0
   19.0562  -28.9378   34.7934 H   0  0  0  0  0  0  0  0  0  0  0  0
   20.4180  -28.0819   33.9438 H   0  0  0  0  0  0  0  0  0  0  0  0
   21.8500  -29.8550   34.4980 H   0  0  0  0  0  0  0  0  0  0  0  0
   19.8004  -31.5729   33.6121 H   0  0  0  0  0  0  0  0  0  0  0  0
   19.7922  -29.9875   32.7675 H   0  0  0  0  0  0  0  0  0  0  0  0
   21.2777  -30.9975   32.7675 H   0  0  0  0  0  0  0  0  0  0  0  0
   19.5315  -31.1516   35.7944 H   0  0  0  0  0  0  0  0  0  0  0  0
   21.2271  -31.7989   35.6456 H   0  0  0  0  0  0  0  0  0  0  0  0
   20.7276  -30.8885   37.9314 H   0  0  0  0  0  0  0  0  0  0  0  0
   22.0789  -30.0389   37.1011 H   0  0  0  0  0  0  0  0  0  0  0  0
  1  2  1  0
  2  3  1  0
  3  4  2  0
  4  5  1  0
  5  6  1  0
  6  7  1  0
  7  8  1  0
  8  9  2  0
  9 10  1  0
 10 11  2  0
 11 12  1  0
 12 13  1  0
 12 14  2  0
 14 15  1  0
 15 16  2  0
 15 17  1  0
 17 18  1  0
  5 19  2  0
 19 20  1  0
 20 21  2  0
 21 22  1  0
 22 23  1  0
 23 24  1  0
 24 25  1  0
 25 26  1  0
 25 27  1  0
 27 28  1  0
 21  3  1  0
 28 22  1  0
 17  6  2  0
 14  8  1  0
  1 29  1  0
  1 30  1  0
  1 31  1  0
  2 32  1  0
  2 33  1  0
  4 34  1  0
  9 35  1  0
 10 36  1  0
 11 37  1  0
 13 38  1  0
 18 39  1  0
 19 40  1  0
 20 41  1  0
 23 42  1  0
 23 43  1  0
 24 44  1  0
 24 45  1  0
 25 46  1  0
 26 47  1  0
 26 48  1  0
 26 49  1  0
 27 50  1  0
 27 51  1  0
 28 52  1  0
 28 53  1  0
M  CHG  1  25   1
M  END
>  <meeko>  (8) 
{"is_sidechain": [false], "free_energy": -8.185, "intermolecular_energy": -10.482, "internal_energy": -0.313}

$$$$
cand_025_out
     RDKit          3D

 53 56  0  0  0  0  0  0  0  0999 V2000
   18.8730  -27.6510   35.5180 C   0  0  0  0  0  0  0  0  0  0  0  0
   20.2740  -28.1890   35.7680 C   0  0  0  0  0  0  0  0  0  0  0  0
   20.3780  -28.9030   37.0970 C   0  0  0  0  0  0  0  0  0  0  0  0
   20.5900  -28.1370   38.2610 C   0  0  0  0  0  0  0  0  0  0  0  0
   20.7040  -28.7350   39.5220 C   0  0  0  0  0  0  0  0  0  0  0  0
   20.9520  -27.9390   40.7430 C   0  0  0  0  0  0  0  0  0  0  0  0
   22.1640  -28.2460   41.3500 O   0  0  0  0  0  0  0  0  0  0  0  0
   22.5210  -27.5790   42.4940 C   0  0  0  0  0  0  0  0  0  0  0  0
   23.7520  -27.9070   43.0620 C   0  0  0  0  0  0  0  0  0  0  0  0
   24.1750  -27.2660   44.2290 C   0  0  0  0  0  0  0  0  0  0  0  0
   23.3660  -26.2990   44.8270 C   0  0  0  0  0  0  0  0  0  0  0  0
   22.1380  -25.9730   44.2590 C   0  0  0  0  0  0  0  0  0  0  0  0
   21.3960  -25.0160   44.8970 O   0  0  0  0  0  0  0  0  0  0  0  0
   21.7150  -26.6130   43.0920 C   0  0  0  0  0  0  0  0  0  0  0  0
   20.4320  -26.3010   42.4610 C   0  0  0  0  0  0  0  0  0  0  0  0
   19.6630  -25.4660   42.9330 O   0  0  0  0  0  0  0  0  0  0  0  0
   20.0810  -27.0310   41.2210 C   0  0  0  0  0  0  0  0  0  0  0  0
   18.8610  -26.7370   40.6430 O   0  0  0  0  0  0  0  0  0  0  0  0
   20.6200  -30.1280   39.6030 C   0  0  0  0  0  0  0  0  0  0  0  0
   20.4170  -30.9010   38.4560 C   0  0  0  0  0  0  0  0  0  0  0  0
   20.2990  -30.3070   37.1900 C   0  0  0  0  0  0  0  0  0  0  0  0
   20.0900  -31.0670   36.0230 N   0  0  0  0  0  0  0  0  0  0  0  0
   21.1690  -30.9480   35.0190 C   0  0  0  0  0  0  0  0  0  0  0  0
   20.7710  -31.7100   33.7320 C   0  0  0  0  0  0  0  0  0  0  0  0
   20.4700  -33.1380   33.9900 N   0  0  0  0  0  0  0  0  0  0  0  0
   20.0460  -33.8050   32.7610 C   0  0  0  0  0  0  0  0  0  0  0  0
   19.4130  -33.2320   35.0250 C   0  0  0  0  0  0  0  0  0  0  0  0
   19.7830  -32.4820   36.3270 C   0  0  0  0  0  0  0  0  0  0  0  0
   18.3763  -27.4603   36.4807 H   0  0  0  0  0  0  0  0  0  0  0  0
   18.9369  -26.7134   34.9463 H   0  0  0  0  0  0  0  0  0  0  0  0
   18.2929  -28.3903   34.9463 H   0  0  0  0  0  0  0  0  0  0  0  0
   20.5320  -28.8947   34.9646 H   0  0  0  0  0  0  0  0  0  0  0  0
   20.9675  -27.3354   35.7858 H   0  0  0  0  0  0  0  0  0  0  0  0
   20.6678  -27.0430   38.1768 H   0  0  0  0  0  0  0  0  0  0  0  0
   24.3894  -28.6700   42.5913 H   0  0  0  0  0  0  0  0  0  0  0  0
   25.1462  -27.5237   44.6767 H   0  0  0  0  0  0  0  0  0  0  0  0
   23.6985  -25.7949   45.7464 H   0  0  0  0  0  0  0  0  0  0  0  0
   20.6720  -24.6150   44.4580 H   0  0  0  0  0  0  0  0  0  0  0  0
   18.2200  -27.4110   40.5300 H   0  0  0  0  0  0  0  0  0  0  0  0
   20.7148  -30.6220   40.5813 H   0  0  0  0  0  0  0  0  0  0  0  0
   20.3485  -31.9950   38.5475 H   0  0  0  0  0  0  0  0  0  0  0  0
   21.3306  -29.8865   34.7801 H   0  0  0  0  0  0  0  0  0  0  0  0
   22.0948  -31.3803   35.4265 H   0  0  0  0  0  0  0  0  0  0  0  0
   19.8782  -31.2332   33.3012 H   0  0  0  0  0  0  0  0  0  0  0  0
   21.6249  -31.6674   33.0399 H   0  0  0  0  0  0  0  0  0  0  0  0
   21.3130  -33.6050   34.3240 H   0  0  0  0  0  0  0  0  0  0  0  0
   19.4717  -34.7085   33.0136 H   0  0  0  0  0  0  0  0  0  0  0  0
   19.4156  -33.1225   32.1721 H   0  0  0  0  0  0  0  0  0  0  0  0
   20.9315  -34.0861   32.1721 H   0  0  0  0  0  0  0  0  0  0  0  0
   18.4857  -32.7994   34.6212 H   0  0  0  0  0  0  0  0  0  0  0  0
   19.2896  -34.2954   35.2780 H   0  0  0  0  0  0  0  0  0  0  0  0
   18.9367  -32.5291   37.0282 H   0  0  0  0  0  0  0  0  0  0  0  0
   20.6671  -32.9554   36.7790 H   0  0  0  0  0  0  0  0  0  0  0  0
  1  2  1  0
  2  3  1  0
  3  4  2  0
  4  5  1  0
  5  6  1  0
  6  7  1  0
  7  8  1  0
  8  9  2  0
  9 10  1  0
 10 11  2  0
 11 12  1  0
 12 13  1  0
 12 14  2  0
 14 15  1  0
 15 16  2  0
 15 17  1  0
 17 18  1  0
  5 19  2  0
 19 20  1  0
 20 21  2  0
 21 22  1  0
 22 23  1  0
 23 24  1  0
 24 25  1  0
 25 26  1  0
 25 27  1  0
 27 28  1  0
 21  3  1  0
 28 22  1  0
 17  6  2  0
 14  8  1  0
  1 29  1  0
  1 30  1  0
  1 31  1  0
  2 32  1  0
  2 33  1  0
  4 34  1  0
  9 35  1  0
 10 36  1  0
 11 37  1  0
 13 38  1  0
 18 39  1  0
 19 40  1  0
 20 41  1  0
 23 42  1  0
 23 43  1  0
 24 44  1  0
 24 45  1  0
 25 46  1  0
 26 47  1  0
 26 48  1  0
 26 49  1  0
 27 50  1  0
 27 51  1  0
 28 52  1  0
 28 53  1  0
M  CHG  1  25   1
M  END
>  <meeko>  (9) 
{"is_sidechain": [false], "free_energy": -8.174, "intermolecular_energy": -10.694, "internal_energy": -0.088}

$$$$
