cand_056_out
     RDKit          3D

 50 53  0  0  0  0  0  0  0  0999 V2000
   19.6640  -22.6350   43.4000 C   0  0  0  0  0  0  0  0  0  0  0  0
   20.0710  -23.8400   42.6800 N   0  0  0  0  0  0  0  0  0  0  0  0
   21.5320  -23.8280   42.4300 C   0  0  0  0  0  0  0  0  0  0  0  0
   22.0200  -25.1130   41.7180 C   0  0  0  0  0  0  0  0  0  0  0  0
   21.6450  -26.3030   42.5170 N   0  0  0  0  0  0  0  0  0  0  0  0
   22.1640  -27.5070   42.0090 C   0  0  0  0  0  0  0  0  0  0  0  0
   21.5450  -28.1970   40.9490 C   0  0  0  0  0  0  0  0  0  0  0  0
   22.0680  -29.3920   40.4360 C   0  0  0  0  0  0  0  0  0  0  0  0
   21.4030  -30.1210   39.3360 C   0  0  0  0  0  0  0  0  0  0  0  0
   20.6290  -31.1860   39.7810 O   0  0  0  0  0  0  0  0  0  0  0  0
   19.9560  -31.9470   38.8610 C   0  0  0  0  0  0  0  0  0  0  0  0
   19.1790  -32.9970   39.3540 C   0  0  0  0  0  0  0  0  0  0  0  0
   18.4690  -33.8120   38.4700 C   0  0  0  0  0  0  0  0  0  0  0  0
   18.5350  -33.5780   37.0940 C   0  0  0  0  0  0  0  0  0  0  0  0
   19.3100  -32.5300   36.6060 C   0  0  0  0  0  0  0  0  0  0  0  0
   19.3310  -32.3570   35.2490 O   0  0  0  0  0  0  0  0  0  0  0  0
   20.0210  -31.7140   37.4900 C   0  0  0  0  0  0  0  0  0  0  0  0
   20.8480  -30.6030   37.0180 C   0  0  0  0  0  0  0  0  0  0  0  0
   20.9620  -30.3370   35.8230 O   0  0  0  0  0  0  0  0  0  0  0  0
   21.5540  -29.7930   38.0380 C   0  0  0  0  0  0  0  0  0  0  0  0
   22.3430  -28.7540   37.5820 O   0  0  0  0  0  0  0  0  0  0  0  0
   23.2280  -29.9150   41.0160 C   0  0  0  0  0  0  0  0  0  0  0  0
   23.8540  -29.2490   42.0710 C   0  0  0  0  0  0  0  0  0  0  0  0
   23.3340  -28.0430   42.5760 C   0  0  0  0  0  0  0  0  0  0  0  0
   24.0320  -27.3400   43.7150 C   0  0  0  0  0  0  0  0  0  0  0  0
   25.0450  -28.0880   44.2530 F   0  0  0  0  0  0  0  0  0  0  0  0
   23.2130  -27.0570   44.7690 F   0  0  0  0  0  0  0  0  0  0  0  0
   24.6220  -26.1630   43.3560 F   0  0  0  0  0  0  0  0  0  0  0  0
   20.1840  -26.3540   42.7600 C   0  0  0  0  0  0  0  0  0  0  0  0
   19.7200  -25.0520   43.4560 C   0  0  0  0  0  0  0  0  0  0  0  0
   19.7254  -22.8167   44.4831 H   0  0  0  0  0  0  0  0  0  0  0  0
   20.3311  -21.8033   43.1294 H   0  0  0  0  0  0  0  0  0  0  0  0
   18.6292  -22.3781   43.1294 H   0  0  0  0  0  0  0  0  0  0  0  0
   19.5750  -23.8550   41.7880 H   0  0  0  0  0  0  0  0  0  0  0  0
   21.7752  -22.9605   41.7989 H   0  0  0  0  0  0  0  0  0  0  0  0
   22.0384  -23.7721   43.4049 H   0  0  0  0  0  0  0  0  0  0  0  0
   21.5539  -25.1790   40.7238 H   0  0  0  0  0  0  0  0  0  0  0  0
   23.1143  -25.0765   41.6127 H   0  0  0  0  0  0  0  0  0  0  0  0
   20.6237  -27.7860   40.5105 H   0  0  0  0  0  0  0  0  0  0  0  0
   19.1262  -33.1819   40.4371 H   0  0  0  0  0  0  0  0  0  0  0  0
   17.8567  -34.6396   38.8575 H   0  0  0  0  0  0  0  0  0  0  0  0
   17.9757  -34.2206   36.3981 H   0  0  0  0  0  0  0  0  0  0  0  0
   19.5140  -33.0850   34.6870 H   0  0  0  0  0  0  0  0  0  0  0  0
   21.9610  -28.0630   37.0770 H   0  0  0  0  0  0  0  0  0  0  0  0
   23.6501  -30.8579   40.6382 H   0  0  0  0  0  0  0  0  0  0  0  0
   24.7671  -29.6732   42.5140 H   0  0  0  0  0  0  0  0  0  0  0  0
   19.6581  -26.4617   41.7999 H   0  0  0  0  0  0  0  0  0  0  0  0
   19.9544  -27.2127   43.4081 H   0  0  0  0  0  0  0  0  0  0  0  0
   18.6276  -25.0879   43.5799 H   0  0  0  0  0  0  0  0  0  0  0  0
   20.2343  -24.9892   44.4263 H   0  0  0  0  0  0  0  0  0  0  0  0
  1  2  1  0
  2  3  1  0
  3  4  1  0
  4  5  1  0
  5  6  1  0
  6  7  2  0
  7  8  1  0
  8  9  1  0
  9 10  1  0
 10 11  1  0
 11 12  2  0
 12 13  1  0
 13 14  2  0
 14 15  1  0
 15 16  1  0
 15 17  2  0
 17 18  1  0
 18 19  2  0
 18 20  1  0
 20 21  1  0
  8 22  2  0
 22 23  1  0
 23 24  2  0
 24 25  1  0
 25 26  1  0
 25 27  1  0
 25 28  1  0
  5 29  1  0
 29 30  1  0
 30  2  1  0
 24  6  1  0
 20  9  2  0
 17 11  1  0
  1 31  1  0
  1 32  1  0
  1 33  1  0
  2 34  1  0
  3 35  1  0
  3 36  1  0
  4 37  1  0
  4 38  1  0
  7 39  1  0
 12 40  1  0
 13 41  1  0
 14 42  1  0
 16 43  1  0
 21 44  1  0
 22 45  1  0
 23 46  1  0
 29 47  1  0
 29 48  1  0
 30 49  1  0
 30 50  1  0
M  CHG  1   2   1
M  END
>  <meeko>  (1) 
{"is_sidechain": [false], "free_energy": -10.488, "intermolecular_energy": -12.94, "internal_energy": -0.728}

$$$$
cand_056_out
     RDKit          3D

 50 53  0  0  0  0  0  0  0  0999 V2000
   17.7980  -22.5830   40.1130 C   0  0  0  0  0  0  0  0  0  0  0  0
   18.2200  -23.9730   39.9500 N   0  0  0  0  0  0  0  0  0  0  0  0
   19.4050  -24.0560   39.0640 C   0  0  0  0  0  0  0  0  0  0  0  0
   19.9250  -25.5050   38.9060 C   0  0  0  0  0  0  0  0  0  0  0  0
   20.2370  -26.0750   40.2370 N   0  0  0  0  0  0  0  0  0  0  0  0
   20.8390  -27.3450   40.1780 C   0  0  0  0  0  0  0  0  0  0  0  0
   20.3780  -28.3470   39.3030 C   0  0  0  0  0  0  0  0  0  0  0  0
   20.9850  -29.6100   39.2370 C   0  0  0  0  0  0  0  0  0  0  0  0
   20.4840  -30.6640   38.3310 C   0  0  0  0  0  0  0  0  0  0  0  0
   20.0430  -31.7960   39.0070 O   0  0  0  0  0  0  0  0  0  0  0  0
   19.5520  -32.8510   38.2830 C   0  0  0  0  0  0  0  0  0  0  0  0
   19.1070  -33.9610   39.0040 C   0  0  0  0  0  0  0  0  0  0  0  0
   18.5960  -35.0710   38.3280 C   0  0  0  0  0  0  0  0  0  0  0  0
   18.5310  -35.0720   36.9320 C   0  0  0  0  0  0  0  0  0  0  0  0
   18.9760  -33.9640   36.2160 C   0  0  0  0  0  0  0  0  0  0  0  0
   18.8840  -34.0320   34.8530 O   0  0  0  0  0  0  0  0  0  0  0  0
   19.4860  -32.8530   36.8930 C   0  0  0  0  0  0  0  0  0  0  0  0
   19.9650  -31.6690   36.1790 C   0  0  0  0  0  0  0  0  0  0  0  0
   19.9470  -31.5960   34.9520 O   0  0  0  0  0  0  0  0  0  0  0  0
   20.4800  -30.5410   36.9900 C   0  0  0  0  0  0  0  0  0  0  0  0
   20.9420  -29.4330   36.3060 O   0  0  0  0  0  0  0  0  0  0  0  0
   22.0650  -29.8750   40.0840 C   0  0  0  0  0  0  0  0  0  0  0  0
   22.5340  -28.8960   40.9610 C   0  0  0  0  0  0  0  0  0  0  0  0
   21.9310  -27.6250   41.0180 C   0  0  0  0  0  0  0  0  0  0  0  0
   22.4600  -26.5830   41.9730 C   0  0  0  0  0  0  0  0  0  0  0  0
   23.6550  -26.9440   42.5370 F   0  0  0  0  0  0  0  0  0  0  0  0
   21.6350  -26.3410   43.0330 F   0  0  0  0  0  0  0  0  0  0  0  0
   22.7030  -25.3740   41.3880 F   0  0  0  0  0  0  0  0  0  0  0  0
   19.0610  -26.0290   41.1370 C   0  0  0  0  0  0  0  0  0  0  0  0
   18.5520  -24.5720   41.2640 C   0  0  0  0  0  0  0  0  0  0  0  0
   17.7257  -22.3450   41.1845 H   0  0  0  0  0  0  0  0  0  0  0  0
   18.5348  -21.9181   39.6386 H   0  0  0  0  0  0  0  0  0  0  0  0
   16.8159  -22.4399   39.6386 H   0  0  0  0  0  0  0  0  0  0  0  0
   17.4470  -24.4890   39.5290 H   0  0  0  0  0  0  0  0  0  0  0  0
   19.1314  -23.6690   38.0714 H   0  0  0  0  0  0  0  0  0  0  0  0
   20.2081  -23.4603   39.5224 H   0  0  0  0  0  0  0  0  0  0  0  0
   19.1534  -26.1185   38.4179 H   0  0  0  0  0  0  0  0  0  0  0  0
   20.8373  -25.4981   38.2914 H   0  0  0  0  0  0  0  0  0  0  0  0
   19.5171  -28.1334   38.6524 H   0  0  0  0  0  0  0  0  0  0  0  0
   19.1589  -33.9610   40.1028 H   0  0  0  0  0  0  0  0  0  0  0  0
   18.2443  -35.9455   38.8950 H   0  0  0  0  0  0  0  0  0  0  0  0
   18.1289  -35.9467   36.3998 H   0  0  0  0  0  0  0  0  0  0  0  0
   19.6630  -34.0230   34.3310 H   0  0  0  0  0  0  0  0  0  0  0  0
   20.4240  -28.6520   36.2760 H   0  0  0  0  0  0  0  0  0  0  0  0
   22.5488  -30.8626   40.0591 H   0  0  0  0  0  0  0  0  0  0  0  0
   23.3875  -29.1207   41.6175 H   0  0  0  0  0  0  0  0  0  0  0  0
   18.2605  -26.6604   40.7240 H   0  0  0  0  0  0  0  0  0  0  0  0
   19.3508  -26.3996   42.1313 H   0  0  0  0  0  0  0  0  0  0  0  0
   17.6495  -24.5667   41.8928 H   0  0  0  0  0  0  0  0  0  0  0  0
   19.3586  -23.9728   41.7115 H   0  0  0  0  0  0  0  0  0  0  0  0
  1  2  1  0
  2  3  1  0
  3  4  1  0
  4  5  1  0
  5  6  1  0
  6  7  2  0
  7  8  1  0
  8  9  1  0
  9 10  1  0
 10 11  1  0
 11 12  2  0
 12 13  1  0
 13 14  2  0
 14 15  1  0
 15 16  1  0
 15 17  2  0
 17 18  1  0
 18 19  2  0
 18 20  1  0
 20 21  1  0
  8 22  2  0
 22 23  1  0
 23 24  2  0
 24 25  1  0
 25 26  1  0
 25 27  1  0
 25 28  1  0
  5 29  1  0
 29 30  1  0
 30  2  1  0
 24  6  1  0
 20  9  2  0
 17 11  1  0
  1 31  1  0
  1 32  1  0
  1 33  1  0
  2 34  1  0
  3 35  1  0
  3 36  1  0
  4 37  1  0
  4 38  1  0
  7 39  1  0
 12 40  1  0
 13 41  1  0
 14 42  1  0
 16 43  1  0
 21 44  1  0
 22 45  1  0
 23 46  1  0
 29 47  1  0
 29 48  1  0
 30 49  1  0
 30 50  1  0
M  CHG  1   2   1
M  END
>  <meeko>  (2) 
{"is_sidechain": [false], "free_energy": -9.574, "intermolecular_energy": -11.986, "internal_energy": -0.554}

$$$$
cand_056_out
     RDKit          3D

 50 53  0  0  0  0  0  0  0  0999 V2000
   17.5580  -22.7550   39.1040 C   0  0  0  0  0  0  0  0  0  0  0  0
   18.0140  -24.1410   39.0040 N   0  0  0  0  0  0  0  0  0  0  0  0
   19.3720  -24.2000   38.4140 C   0  0  0  0  0  0  0  0  0  0  0  0
   19.9220  -25.6450   38.3390 C   0  0  0  0  0  0  0  0  0  0  0  0
   19.9210  -26.2530   39.6900 N   0  0  0  0  0  0  0  0  0  0  0  0
   20.5280  -27.5210   39.7360 C   0  0  0  0  0  0  0  0  0  0  0  0
   20.1470  -28.5600   38.8660 C   0  0  0  0  0  0  0  0  0  0  0  0
   20.7580  -29.8220   38.9050 C   0  0  0  0  0  0  0  0  0  0  0  0
   20.3410  -30.9140   38.0010 C   0  0  0  0  0  0  0  0  0  0  0  0
   20.6870  -30.6830   36.6750 O   0  0  0  0  0  0  0  0  0  0  0  0
   20.3590  -31.6210   35.7310 C   0  0  0  0  0  0  0  0  0  0  0  0
   20.7390  -31.3550   34.4150 C   0  0  0  0  0  0  0  0  0  0  0  0
   20.4330  -32.2680   33.4040 C   0  0  0  0  0  0  0  0  0  0  0  0
   19.7480  -33.4470   33.7080 C   0  0  0  0  0  0  0  0  0  0  0  0
   19.3700  -33.7100   35.0220 C   0  0  0  0  0  0  0  0  0  0  0  0
   18.7010  -34.8810   35.2500 O   0  0  0  0  0  0  0  0  0  0  0  0
   19.6760  -32.7960   36.0340 C   0  0  0  0  0  0  0  0  0  0  0  0
   19.2960  -33.0330   37.4270 C   0  0  0  0  0  0  0  0  0  0  0  0
   18.6860  -34.0420   37.7730 O   0  0  0  0  0  0  0  0  0  0  0  0
   19.6750  -32.0060   38.4250 C   0  0  0  0  0  0  0  0  0  0  0  0
   19.3010  -32.2320   39.7360 O   0  0  0  0  0  0  0  0  0  0  0  0
   21.7600  -30.0470   39.8540 C   0  0  0  0  0  0  0  0  0  0  0  0
   22.1490  -29.0310   40.7280 C   0  0  0  0  0  0  0  0  0  0  0  0
   21.5420  -27.7620   40.6790 C   0  0  0  0  0  0  0  0  0  0  0  0
   21.9830  -26.6800   41.6340 C   0  0  0  0  0  0  0  0  0  0  0  0
   23.0930  -27.0330   42.3540 F   0  0  0  0  0  0  0  0  0  0  0  0
   21.0460  -26.3620   42.5740 F   0  0  0  0  0  0  0  0  0  0  0  0
   22.3260  -25.5100   41.0200 F   0  0  0  0  0  0  0  0  0  0  0  0
   18.5680  -26.2310   40.2950 C   0  0  0  0  0  0  0  0  0  0  0  0
   18.0360  -24.7780   40.3420 C   0  0  0  0  0  0  0  0  0  0  0  0
   17.4658  -22.4749   40.1637 H   0  0  0  0  0  0  0  0  0  0  0  0
   18.2858  -22.0931   38.6117 H   0  0  0  0  0  0  0  0  0  0  0  0
   16.5794  -22.6545   38.6117 H   0  0  0  0  0  0  0  0  0  0  0  0
   17.3610  -24.6430   38.4020 H   0  0  0  0  0  0  0  0  0  0  0  0
   19.3332  -23.7838   37.3965 H   0  0  0  0  0  0  0  0  0  0  0  0
   20.0443  -23.6191   39.0625 H   0  0  0  0  0  0  0  0  0  0  0  0
   19.2870  -26.2431   37.6689 H   0  0  0  0  0  0  0  0  0  0  0  0
   20.9513  -25.6222   37.9517 H   0  0  0  0  0  0  0  0  0  0  0  0
   19.3466  -28.3768   38.1340 H   0  0  0  0  0  0  0  0  0  0  0  0
   21.2789  -30.4273   34.1744 H   0  0  0  0  0  0  0  0  0  0  0  0
   20.7318  -32.0586   32.3663 H   0  0  0  0  0  0  0  0  0  0  0  0
   19.5078  -34.1660   32.9110 H   0  0  0  0  0  0  0  0  0  0  0  0
   19.1760  -35.6870   35.3130 H   0  0  0  0  0  0  0  0  0  0  0  0
   19.7520  -31.7980   40.4340 H   0  0  0  0  0  0  0  0  0  0  0  0
   22.2453  -31.0324   39.9121 H   0  0  0  0  0  0  0  0  0  0  0  0
   22.9415  -29.2247   41.4659 H   0  0  0  0  0  0  0  0  0  0  0  0
   17.8880  -26.8491   39.6905 H   0  0  0  0  0  0  0  0  0  0  0  0
   18.6222  -26.6303   41.3185 H   0  0  0  0  0  0  0  0  0  0  0  0
   17.0124  -24.7894   40.7447 H   0  0  0  0  0  0  0  0  0  0  0  0
   18.7140  -24.1930   40.9809 H   0  0  0  0  0  0  0  0  0  0  0  0
  1  2  1  0
  2  3  1  0
  3  4  1  0
  4  5  1  0
  5  6  1  0
  6  7  2  0
  7  8  1  0
  8  9  1  0
  9 10  1  0
 10 11  1  0
 11 12  2  0
 12 13  1  0
 13 14  2  0
 14 15  1  0
 15 16  1  0
 15 17  2  0
 17 18  1  0
 18 19  2  0
 18 20  1  0
 20 21  1  0
  8 22  2  0
 22 23  1  0
 23 24  2  0
 24 25  1  0
 25 26  1  0
 25 27  1  0
 25 28  1  0
  5 29  1  0
 29 30  1  0
 30  2  1  0
 24  6  1  0
 20  9  2  0
 17 11  1  0
  1 31  1  0
  1 32  1  0
  1 33  1  0
  2 34  1  0
  3 35  1  0
  3 36  1  0
  4 37  1  0
  4 38  1  0
  7 39  1  0
 12 40  1  0
 13 41  1  0
 14 42  1  0
 16 43  1  0
 21 44  1  0
 22 45  1  0
 23 46  1  0
 29 47  1  0
 29 48  1  0
 30 49  1  0
 30 50  1  0
M  CHG  1   2   1
M  END
>  <meeko>  (3) 
{"is_sidechain": [false], "free_energy": -9.121, "intermolecular_energy": -11.297, "internal_energy": -0.685}

$$$$
cand_056_out
     RDKit          3D

 50 53  0  0  0  0  0  0  0  0999 V2000
   18.3050  -23.0540   42.0470 C   0  0  0  0  0  0  0  0  0  0  0  0
   18.7090  -24.3940   41.6240 N   0  0  0  0  0  0  0  0  0  0  0  0
   19.7150  -24.3150   40.5380 C   0  0  0  0  0  0  0  0  0  0  0  0
   20.2160  -25.7100   40.0950 C   0  0  0  0  0  0  0  0  0  0  0  0
   20.7730  -26.4370   41.2590 N   0  0  0  0  0  0  0  0  0  0  0  0
   21.3720  -27.6640   40.9220 C   0  0  0  0  0  0  0  0  0  0  0  0
   20.8450  -28.4980   39.9180 C   0  0  0  0  0  0  0  0  0  0  0  0
   21.4470  -29.7180   39.5750 C   0  0  0  0  0  0  0  0  0  0  0  0
   20.8790  -30.5980   38.5330 C   0  0  0  0  0  0  0  0  0  0  0  0
   21.2240  -30.2060   37.2450 O   0  0  0  0  0  0  0  0  0  0  0  0
   20.7620  -30.9390   36.1830 C   0  0  0  0  0  0  0  0  0  0  0  0
   21.1460  -30.5190   34.9080 C   0  0  0  0  0  0  0  0  0  0  0  0
   20.7080  -31.2200   33.7830 C   0  0  0  0  0  0  0  0  0  0  0  0
   19.8870  -32.3410   33.9320 C   0  0  0  0  0  0  0  0  0  0  0  0
   19.5060  -32.7580   35.2040 C   0  0  0  0  0  0  0  0  0  0  0  0
   18.7010  -33.8610   35.2770 O   0  0  0  0  0  0  0  0  0  0  0  0
   19.9450  -32.0560   36.3300 C   0  0  0  0  0  0  0  0  0  0  0  0
   19.5660  -32.4600   37.6850 C   0  0  0  0  0  0  0  0  0  0  0  0
   18.8420  -33.4310   37.8970 O   0  0  0  0  0  0  0  0  0  0  0  0
   20.0910  -31.6540   38.8110 C   0  0  0  0  0  0  0  0  0  0  0  0
   19.7180  -32.0350   40.0860 O   0  0  0  0  0  0  0  0  0  0  0  0
   22.5930  -30.1140   40.2720 C   0  0  0  0  0  0  0  0  0  0  0  0
   23.1280  -29.3020   41.2740 C   0  0  0  0  0  0  0  0  0  0  0  0
   22.5290  -28.0740   41.6080 C   0  0  0  0  0  0  0  0  0  0  0  0
   23.1300  -27.2140   42.6940 C   0  0  0  0  0  0  0  0  0  0  0  0
   24.3870  -27.6220   43.0530 F   0  0  0  0  0  0  0  0  0  0  0  0
   22.4160  -27.2210   43.8570 F   0  0  0  0  0  0  0  0  0  0  0  0
   23.2780  -25.9040   42.3390 F   0  0  0  0  0  0  0  0  0  0  0  0
   19.7790  -26.5530   42.3530 C   0  0  0  0  0  0  0  0  0  0  0  0
   19.2820  -25.1470   42.7640 C   0  0  0  0  0  0  0  0  0  0  0  0
   18.2903  -23.0052   43.1458 H   0  0  0  0  0  0  0  0  0  0  0  0
   19.0203  -22.3151   41.6567 H   0  0  0  0  0  0  0  0  0  0  0  0
   17.3005  -22.8336   41.6567 H   0  0  0  0  0  0  0  0  0  0  0  0
   17.8790  -24.8790   41.2820 H   0  0  0  0  0  0  0  0  0  0  0  0
   19.2609  -23.8114   39.6719 H   0  0  0  0  0  0  0  0  0  0  0  0
   20.5800  -23.7547   40.9225 H   0  0  0  0  0  0  0  0  0  0  0  0
   19.3763  -26.2828   39.6746 H   0  0  0  0  0  0  0  0  0  0  0  0
   21.0006  -25.5888   39.3336 H   0  0  0  0  0  0  0  0  0  0  0  0
   19.9344  -28.1840   39.3867 H   0  0  0  0  0  0  0  0  0  0  0  0
   21.7927  -29.6370   34.7901 H   0  0  0  0  0  0  0  0  0  0  0  0
   21.0095  -30.8896   32.7781 H   0  0  0  0  0  0  0  0  0  0  0  0
   19.5424  -32.8930   33.0452 H   0  0  0  0  0  0  0  0  0  0  0  0
   17.9810  -33.9560   34.6850 H   0  0  0  0  0  0  0  0  0  0  0  0
   20.3230  -32.4990   40.6330 H   0  0  0  0  0  0  0  0  0  0  0  0
   23.0763  -31.0719   40.0291 H   0  0  0  0  0  0  0  0  0  0  0  0
   24.0316  -29.6276   41.8103 H   0  0  0  0  0  0  0  0  0  0  0  0
   18.9255  -27.1551   42.0080 H   0  0  0  0  0  0  0  0  0  0  0  0
   20.2501  -27.0385   43.2204 H   0  0  0  0  0  0  0  0  0  0  0  0
   18.5085  -25.2583   43.5382 H   0  0  0  0  0  0  0  0  0  0  0  0
   20.1484  -24.5814   43.1375 H   0  0  0  0  0  0  0  0  0  0  0  0
  1  2  1  0
  2  3  1  0
  3  4  1  0
  4  5  1  0
  5  6  1  0
  6  7  2  0
  7  8  1  0
  8  9  1  0
  9 10  1  0
 10 11  1  0
 11 12  2  0
 12 13  1  0
 13 14  2  0
 14 15  1  0
 15 16  1  0
 15 17  2  0
 17 18  1  0
 18 19  2  0
 18 20  1  0
 20 21  1  0
  8 22  2  0
 22 23  1  0
 23 24  2  0
 24 25  1  0
 25 26  1  0
 25 27  1  0
 25 28  1  0
  5 29  1  0
 29 30  1  0
 30  2  1  0
 24  6  1  0
 20  9  2  0
 17 11  1  0
  1 31  1  0
  1 32  1  0
  1 33  1  0
  2 34  1  0
  3 35  1  0
  3 36  1  0
  4 37  1  0
  4 38  1  0
  7 39  1  0
 12 40  1  0
 13 41  1  0
 14 42  1  0
 16 43  1  0
 21 44  1  0
 22 45  1  0
 23 46  1  0
 29 47  1  0
 29 48  1  0
 30 49  1  0
 30 50  1  0
M  CHG  1   2   1
M  END
>  <meeko>  (4) 
{"is_sidechain": [false], "free_energy": -9.056, "intermolecular_energy": -11.353, "internal_energy": -0.548}

$$$$
cand_056_out
     RDKit          3D

 50 53  0  0  0  0  0  0  0  0999 V2000
   19.5830  -34.1360   34.5030 C   0  0  0  0  0  0  0  0  0  0  0  0
   20.1540  -33.0890   35.3500 N   0  0  0  0  0  0  0  0  0  0  0  0
   20.3730  -31.8500   34.5680 C   0  0  0  0  0  0  0  0  0  0  0  0
   20.9250  -30.6940   35.4360 C   0  0  0  0  0  0  0  0  0  0  0  0
   20.0060  -30.4320   36.5690 N   0  0  0  0  0  0  0  0  0  0  0  0
   20.3640  -29.3090   37.3350 C   0  0  0  0  0  0  0  0  0  0  0  0
   21.0990  -29.4280   38.5310 C   0  0  0  0  0  0  0  0  0  0  0  0
   21.4650  -28.3070   39.2910 C   0  0  0  0  0  0  0  0  0  0  0  0
   22.2190  -28.4390   40.5550 C   0  0  0  0  0  0  0  0  0  0  0  0
   21.9590  -27.4100   41.4510 O   0  0  0  0  0  0  0  0  0  0  0  0
   22.5940  -27.4120   42.6660 C   0  0  0  0  0  0  0  0  0  0  0  0
   22.2920  -26.3670   43.5410 C   0  0  0  0  0  0  0  0  0  0  0  0
   22.9060  -26.3090   44.7940 C   0  0  0  0  0  0  0  0  0  0  0  0
   23.8210  -27.2940   45.1720 C   0  0  0  0  0  0  0  0  0  0  0  0
   24.1200  -28.3350   44.2970 C   0  0  0  0  0  0  0  0  0  0  0  0
   25.0260  -29.2650   44.7300 O   0  0  0  0  0  0  0  0  0  0  0  0
   23.5060  -28.3940   43.0430 C   0  0  0  0  0  0  0  0  0  0  0  0
   23.7930  -29.4690   42.0940 C   0  0  0  0  0  0  0  0  0  0  0  0
   24.5920  -30.3690   42.3500 O   0  0  0  0  0  0  0  0  0  0  0  0
   23.0820  -29.4440   40.7950 C   0  0  0  0  0  0  0  0  0  0  0  0
   23.3700  -30.4570   39.9000 O   0  0  0  0  0  0  0  0  0  0  0  0
   21.0640  -27.0430   38.8480 C   0  0  0  0  0  0  0  0  0  0  0  0
   20.3320  -26.9050   37.6670 C   0  0  0  0  0  0  0  0  0  0  0  0
   19.9770  -28.0300   36.9000 C   0  0  0  0  0  0  0  0  0  0  0  0
   19.1870  -27.8530   35.6260 C   0  0  0  0  0  0  0  0  0  0  0  0
   18.5640  -26.6350   35.5570 F   0  0  0  0  0  0  0  0  0  0  0  0
   18.1840  -28.7650   35.4710 F   0  0  0  0  0  0  0  0  0  0  0  0
   19.9480  -27.9180   34.4940 F   0  0  0  0  0  0  0  0  0  0  0  0
   19.7900  -31.6510   37.3840 C   0  0  0  0  0  0  0  0  0  0  0  0
   19.2540  -32.7950   36.4890 C   0  0  0  0  0  0  0  0  0  0  0  0
   19.1523  -34.9257   35.1362 H   0  0  0  0  0  0  0  0  0  0  0  0
   18.7951  -33.7048   33.8679 H   0  0  0  0  0  0  0  0  0  0  0  0
   20.3721  -34.5649   33.8679 H   0  0  0  0  0  0  0  0  0  0  0  0
   21.0490  -33.4270   35.7050 H   0  0  0  0  0  0  0  0  0  0  0  0
   21.0927  -32.0625   33.7637 H   0  0  0  0  0  0  0  0  0  0  0  0
   19.4003  -31.5316   34.1650 H   0  0  0  0  0  0  0  0  0  0  0  0
   21.9154  -30.9713   35.8261 H   0  0  0  0  0  0  0  0  0  0  0  0
   21.0093  -29.7865   34.8202 H   0  0  0  0  0  0  0  0  0  0  0  0
   21.3945  -30.4288   38.8790 H   0  0  0  0  0  0  0  0  0  0  0  0
   21.5716  -25.5906   43.2440 H   0  0  0  0  0  0  0  0  0  0  0  0
   22.6685  -25.4861   45.4843 H   0  0  0  0  0  0  0  0  0  0  0  0
   24.3045  -27.2475   46.1590 H   0  0  0  0  0  0  0  0  0  0  0  0
   24.7510  -30.1470   44.8900 H   0  0  0  0  0  0  0  0  0  0  0  0
   22.7390  -31.1310   39.7350 H   0  0  0  0  0  0  0  0  0  0  0  0
   21.3272  -26.1503   39.4344 H   0  0  0  0  0  0  0  0  0  0  0  0
   20.0285  -25.9024   37.3314 H   0  0  0  0  0  0  0  0  0  0  0  0
   20.7430  -31.9595   37.8385 H   0  0  0  0  0  0  0  0  0  0  0  0
   19.0549  -31.4337   38.1730 H   0  0  0  0  0  0  0  0  0  0  0  0
   19.1501  -33.7032   37.1008 H   0  0  0  0  0  0  0  0  0  0  0  0
   18.2858  -32.4736   36.0775 H   0  0  0  0  0  0  0  0  0  0  0  0
  1  2  1  0
  2  3  1  0
  3  4  1  0
  4  5  1  0
  5  6  1  0
  6  7  2  0
  7  8  1  0
  8  9  1  0
  9 10  1  0
 10 11  1  0
 11 12  2  0
 12 13  1  0
 13 14  2  0
 14 15  1  0
 15 16  1  0
 15 17  2  0
 17 18  1  0
 18 19  2  0
 18 20  1  0
 20 21  1  0
  8 22  2  0
 22 23  1  0
 23 24  2  0
 24 25  1  0
 25 26  1  0
 25 27  1  0
 25 28  1  0
  5 29  1  0
 29 30  1  0
 30  2  1  0
 24  6  1  0
 20  9  2  0
 17 11  1  0
  1 31  1  0
  1 32  1  0
  1 33  1  0
  2 34  1  0
  3 35  1  0
  3 36  1  0
  4 37  1  0
  4 38  1  0
  7 39  1  0
 12 40  1  0
 13 41  1  0
 14 42  1  0
 16 43  1  0
 21 44  1  0
 22 45  1  0
 23 46  1  0
 29 47  1  0
 29 48  1  0
 30 49  1  0
 30 50  1  0
M  CHG  1   2   1
M  END
>  <meeko>  (5) 
{"is_sidechain": [false], "free_energy": -8.817, "intermolecular_energy": -11.67, "internal_energy": 0.064}

$$$$
cand_056_out
     RDKit          3D

 50 53  0  0  0  0  0  0  0  0999 V2000
   19.8770  -22.1740   44.4150 C   0  0  0  0  0  0  0  0  0  0  0  0
   20.1890  -23.2520   43.4790 N   0  0  0  0  0  0  0  0  0  0  0  0
   21.6470  -23.3060   43.2150 C   0  0  0  0  0  0  0  0  0  0  0  0
   22.0340  -24.4690   42.2710 C   0  0  0  0  0  0  0  0  0  0  0  0
   21.5670  -25.7550   42.8400 N   0  0  0  0  0  0  0  0  0  0  0  0
   21.9910  -26.8800   42.1110 C   0  0  0  0  0  0  0  0  0  0  0  0
   21.4410  -27.2040   40.8560 C   0  0  0  0  0  0  0  0  0  0  0  0
   21.8710  -28.3210   40.1240 C   0  0  0  0  0  0  0  0  0  0  0  0
   21.2770  -28.6670   38.8160 C   0  0  0  0  0  0  0  0  0  0  0  0
   20.6500  -27.5880   38.2040 O   0  0  0  0  0  0  0  0  0  0  0  0
   20.0570  -27.7730   36.9820 C   0  0  0  0  0  0  0  0  0  0  0  0
   19.4510  -26.6590   36.3980 C   0  0  0  0  0  0  0  0  0  0  0  0
   18.8260  -26.7790   35.1540 C   0  0  0  0  0  0  0  0  0  0  0  0
   18.8080  -28.0110   34.4960 C   0  0  0  0  0  0  0  0  0  0  0  0
   19.4130  -29.1200   35.0810 C   0  0  0  0  0  0  0  0  0  0  0  0
   19.3570  -30.2950   34.3830 O   0  0  0  0  0  0  0  0  0  0  0  0
   20.0380  -29.0000   36.3250 C   0  0  0  0  0  0  0  0  0  0  0  0
   20.6840  -30.1400   36.9760 C   0  0  0  0  0  0  0  0  0  0  0  0
   20.7040  -31.2580   36.4640 O   0  0  0  0  0  0  0  0  0  0  0  0
   21.3250  -29.9060   38.2900 C   0  0  0  0  0  0  0  0  0  0  0  0
   21.9220  -30.9910   38.9030 O   0  0  0  0  0  0  0  0  0  0  0  0
   22.8610  -29.1390   40.6780 C   0  0  0  0  0  0  0  0  0  0  0  0
   23.4160  -28.8360   41.9220 C   0  0  0  0  0  0  0  0  0  0  0  0
   22.9910  -27.7090   42.6500 C   0  0  0  0  0  0  0  0  0  0  0  0
   23.6090  -27.4020   43.9920 C   0  0  0  0  0  0  0  0  0  0  0  0
   24.5660  -28.3140   44.3520 F   0  0  0  0  0  0  0  0  0  0  0  0
   22.7150  -27.4130   45.0230 F   0  0  0  0  0  0  0  0  0  0  0  0
   24.2440  -26.1950   44.0430 F   0  0  0  0  0  0  0  0  0  0  0  0
   20.1060  -25.7390   43.0900 C   0  0  0  0  0  0  0  0  0  0  0  0
   19.7440  -24.5570   44.0220 C   0  0  0  0  0  0  0  0  0  0  0  0
   19.9834  -22.5416   45.4463 H   0  0  0  0  0  0  0  0  0  0  0  0
   20.5691  -21.3348   44.2516 H   0  0  0  0  0  0  0  0  0  0  0  0
   18.8436  -21.8342   44.2516 H   0  0  0  0  0  0  0  0  0  0  0  0
   19.6950  -23.0630   42.6060 H   0  0  0  0  0  0  0  0  0  0  0  0
   21.9574  -22.3575   42.7523 H   0  0  0  0  0  0  0  0  0  0  0  0
   22.1555  -23.4716   44.1763 H   0  0  0  0  0  0  0  0  0  0  0  0
   21.5651  -24.3129   41.2883 H   0  0  0  0  0  0  0  0  0  0  0  0
   23.1280  -24.4974   42.1598 H   0  0  0  0  0  0  0  0  0  0  0  0
   20.6513  -26.5628   40.4373 H   0  0  0  0  0  0  0  0  0  0  0  0
   19.4655  -25.6888   36.9161 H   0  0  0  0  0  0  0  0  0  0  0  0
   18.3477  -25.9025   34.6925 H   0  0  0  0  0  0  0  0  0  0  0  0
   18.3163  -28.1049   33.5165 H   0  0  0  0  0  0  0  0  0  0  0  0
   18.5890  -30.5110   33.8910 H   0  0  0  0  0  0  0  0  0  0  0  0
   22.1610  -30.9460   39.8080 H   0  0  0  0  0  0  0  0  0  0  0  0
   23.2048  -30.0280   40.1289 H   0  0  0  0  0  0  0  0  0  0  0  0
   24.1974  -29.4878   42.3399 H   0  0  0  0  0  0  0  0  0  0  0  0
   19.5736  -25.6261   42.1341 H   0  0  0  0  0  0  0  0  0  0  0  0
   19.8104  -26.6831   43.5709 H   0  0  0  0  0  0  0  0  0  0  0  0
   18.6520  -24.5315   44.1522 H   0  0  0  0  0  0  0  0  0  0  0  0
   20.2608  -24.7152   44.9801 H   0  0  0  0  0  0  0  0  0  0  0  0
  1  2  1  0
  2  3  1  0
  3  4  1  0
  4  5  1  0
  5  6  1  0
  6  7  2  0
  7  8  1  0
  8  9  1  0
  9 10  1  0
 10 11  1  0
 11 12  2  0
 12 13  1  0
 13 14  2  0
 14 15  1  0
 15 16  1  0
 15 17  2  0
 17 18  1  0
 18 19  2  0
 18 20  1  0
 20 21  1  0
  8 22  2  0
 22 23  1  0
 23 24  2  0
 24 25  1  0
 25 26  1  0
 25 27  1  0
 25 28  1  0
  5 29  1  0
 29 30  1  0
 30  2  1  0
 24  6  1  0
 20  9  2  0
 17 11  1  0
  1 31  1  0
  1 32  1  0
  1 33  1  0
  2 34  1  0
  3 35  1  0
  3 36  1  0
  4 37  1  0
  4 38  1  0
  7 39  1  0
 12 40  1  0
 13 41  1  0
 14 42  1  0
 16 43  1  0
 21 44  1  0
 22 45  1  0
 23 46  1  0
 29 47  1  0
 29 48  1  0
 30 49  1  0
 30 50  1  0
M  CHG  1   2   1
M  END
>  <meeko>  (6) 
{"is_sidechain": [false], "free_energy": -8.734, "intermolecular_energy": -11.332, "internal_energy": -0.172}

$$$$
cand_056_out
     RDKit          3D

 50 53  0  0  0  0  0  0  0  0999 V2000
   19.7060  -33.9150   34.9120 C   0  0  0  0  0  0  0  0  0  0  0  0
   20.2140  -32.7840   35.6880 N   0  0  0  0  0  0  0  0  0  0  0  0
   20.3850  -31.5950   34.8210 C   0  0  0  0  0  0  0  0  0  0  0  0
   20.8670  -30.3540   35.6100 C   0  0  0  0  0  0  0  0  0  0  0  0
   19.9190  -30.0570   36.7100 N   0  0  0  0  0  0  0  0  0  0  0  0
   20.2110  -28.8660   37.3980 C   0  0  0  0  0  0  0  0  0  0  0  0
   20.9030  -28.8650   38.6240 C   0  0  0  0  0  0  0  0  0  0  0  0
   21.2030  -27.6760   39.3060 C   0  0  0  0  0  0  0  0  0  0  0  0
   21.9130  -27.6830   40.6010 C   0  0  0  0  0  0  0  0  0  0  0  0
   22.6950  -28.8170   40.7840 O   0  0  0  0  0  0  0  0  0  0  0  0
   23.4100  -28.9490   41.9470 C   0  0  0  0  0  0  0  0  0  0  0  0
   24.1930  -30.0970   42.0820 C   0  0  0  0  0  0  0  0  0  0  0  0
   24.9440  -30.2940   43.2430 C   0  0  0  0  0  0  0  0  0  0  0  0
   24.9120  -29.3450   44.2670 C   0  0  0  0  0  0  0  0  0  0  0  0
   24.1300  -28.2020   44.1300 C   0  0  0  0  0  0  0  0  0  0  0  0
   24.1430  -27.3150   45.1710 O   0  0  0  0  0  0  0  0  0  0  0  0
   23.3780  -28.0040   42.9680 C   0  0  0  0  0  0  0  0  0  0  0  0
   22.5420  -26.8170   42.7840 C   0  0  0  0  0  0  0  0  0  0  0  0
   22.4560  -25.9410   43.6420 O   0  0  0  0  0  0  0  0  0  0  0  0
   21.7910  -26.6990   41.5120 C   0  0  0  0  0  0  0  0  0  0  0  0
   20.9950  -25.5810   41.3530 O   0  0  0  0  0  0  0  0  0  0  0  0
   20.7780  -26.4650   38.7510 C   0  0  0  0  0  0  0  0  0  0  0  0
   20.0870  -26.4460   37.5380 C   0  0  0  0  0  0  0  0  0  0  0  0
   19.7970  -27.6390   36.8500 C   0  0  0  0  0  0  0  0  0  0  0  0
   19.0510  -27.5900   35.5390 C   0  0  0  0  0  0  0  0  0  0  0  0
   18.4510  -26.3780   35.3200 F   0  0  0  0  0  0  0  0  0  0  0  0
   18.0380  -28.5000   35.4500 F   0  0  0  0  0  0  0  0  0  0  0  0
   19.8450  -27.7870   34.4460 F   0  0  0  0  0  0  0  0  0  0  0  0
   19.7480  -31.2230   37.6080 C   0  0  0  0  0  0  0  0  0  0  0  0
   19.2820  -32.4530   36.7920 C   0  0  0  0  0  0  0  0  0  0  0  0
   19.3532  -34.7004   35.5966 H   0  0  0  0  0  0  0  0  0  0  0  0
   18.8721  -33.5796   34.2779 H   0  0  0  0  0  0  0  0  0  0  0  0
   20.5107  -34.3156   34.2779 H   0  0  0  0  0  0  0  0  0  0  0  0
   21.1180  -33.0520   36.0780 H   0  0  0  0  0  0  0  0  0  0  0  0
   21.1266  -31.8289   34.0429 H   0  0  0  0  0  0  0  0  0  0  0  0
   19.4045  -31.3547   34.3841 H   0  0  0  0  0  0  0  0  0  0  0  0
   21.8634  -30.5537   36.0310 H   0  0  0  0  0  0  0  0  0  0  0  0
   20.9169  -29.4898   34.9312 H   0  0  0  0  0  0  0  0  0  0  0  0
   21.2178  -29.8245   39.0601 H   0  0  0  0  0  0  0  0  0  0  0  0
   24.2184  -30.8448   41.2757 H   0  0  0  0  0  0  0  0  0  0  0  0
   25.5615  -31.1979   43.3509 H   0  0  0  0  0  0  0  0  0  0  0  0
   25.5042  -29.5007   45.1808 H   0  0  0  0  0  0  0  0  0  0  0  0
   23.4190  -27.2790   45.7650 H   0  0  0  0  0  0  0  0  0  0  0  0
   20.9370  -25.1620   40.5160 H   0  0  0  0  0  0  0  0  0  0  0  0
   20.9896  -25.5206   39.2738 H   0  0  0  0  0  0  0  0  0  0  0  0
   19.7643  -25.4839   37.1135 H   0  0  0  0  0  0  0  0  0  0  0  0
   20.7071  -31.4512   38.0960 H   0  0  0  0  0  0  0  0  0  0  0  0
   18.9904  -30.9855   38.3694 H   0  0  0  0  0  0  0  0  0  0  0  0
   19.2119  -33.3188   37.4668 H   0  0  0  0  0  0  0  0  0  0  0  0
   18.3063  -32.2099   36.3461 H   0  0  0  0  0  0  0  0  0  0  0  0
  1  2  1  0
  2  3  1  0
  3  4  1  0
  4  5  1  0
  5  6  1  0
  6  7  2  0
  7  8  1  0
  8  9  1  0
  9 10  1  0
 10 11  1  0
 11 12  2  0
 12 13  1  0
 13 14  2  0
 14 15  1  0
 15 16  1  0
 15 17  2  0
 17 18  1  0
 18 19  2  0
 18 20  1  0
 20 21  1  0
  8 22  2  0
 22 23  1  0
 23 24  2  0
 24 25  1  0
 25 26  1  0
 25 27  1  0
 25 28  1  0
  5 29  1  0
 29 30  1  0
 30  2  1  0
 24  6  1  0
 20  9  2  0
 17 11  1  0
  1 31  1  0
  1 32  1  0
  1 33  1  0
  2 34  1  0
  3 35  1  0
  3 36  1  0
  4 37  1  0
  4 38  1  0
  7 39  1  0
 12 40  1  0
 13 41  1  0
 14 42  1  0
 16 43  1  0
 21 44  1  0
 22 45  1  0
 23 46  1  0
 29 47  1  0
 29 48  1  0
 30 49  1  0
 30 50  1  0
M  CHG  1   2   1
M  END
>  <meeko>  (7) 
{"is_sidechain": [false], "free_energy": -8.657, "intermolecular_energy": -11.625, "internal_energy": 0.216}

$$$$
cand_056_out
     RDKit          3D

 50 53  0  0  0  0  0  0  0  0999 V2000
   19.9160  -22.1940   44.7510 C   0  0  0  0  0  0  0  0  0  0  0  0
   20.1590  -23.1910   43.7080 N   0  0  0  0  0  0  0  0  0  0  0  0
   21.6020  -23.2590   43.3810 C   0  0  0  0  0  0  0  0  0  0  0  0
   21.9170  -24.3420   42.3210 C   0  0  0  0  0  0  0  0  0  0  0  0
   21.4340  -25.6610   42.7910 N   0  0  0  0  0  0  0  0  0  0  0  0
   21.7950  -26.7260   41.9460 C   0  0  0  0  0  0  0  0  0  0  0  0
   21.2620  -26.8620   40.6500 C   0  0  0  0  0  0  0  0  0  0  0  0
   21.6300  -27.9180   39.8040 C   0  0  0  0  0  0  0  0  0  0  0  0
   21.0530  -28.0660   38.4520 C   0  0  0  0  0  0  0  0  0  0  0  0
   21.1290  -29.3670   37.9700 O   0  0  0  0  0  0  0  0  0  0  0  0
   20.6270  -29.6430   36.7240 C   0  0  0  0  0  0  0  0  0  0  0  0
   20.7120  -30.9660   36.2860 C   0  0  0  0  0  0  0  0  0  0  0  0
   20.2210  -31.3140   35.0250 C   0  0  0  0  0  0  0  0  0  0  0  0
   19.6480  -30.3410   34.2040 C   0  0  0  0  0  0  0  0  0  0  0  0
   19.5650  -29.0230   34.6430 C   0  0  0  0  0  0  0  0  0  0  0  0
   18.9930  -28.1210   33.7880 O   0  0  0  0  0  0  0  0  0  0  0  0
   20.0560  -28.6740   35.9050 C   0  0  0  0  0  0  0  0  0  0  0  0
   19.9890  -27.3000   36.4040 C   0  0  0  0  0  0  0  0  0  0  0  0
   19.5060  -26.3870   35.7380 O   0  0  0  0  0  0  0  0  0  0  0  0
   20.5300  -27.0370   37.7580 C   0  0  0  0  0  0  0  0  0  0  0  0
   20.4750  -25.7350   38.2170 O   0  0  0  0  0  0  0  0  0  0  0  0
   22.5380  -28.8690   40.2820 C   0  0  0  0  0  0  0  0  0  0  0  0
   23.0740  -28.7540   41.5650 C   0  0  0  0  0  0  0  0  0  0  0  0
   22.7120  -27.6860   42.4080 C   0  0  0  0  0  0  0  0  0  0  0  0
   23.3090  -27.5830   43.7910 C   0  0  0  0  0  0  0  0  0  0  0  0
   24.2060  -28.5850   44.0530 F   0  0  0  0  0  0  0  0  0  0  0  0
   22.3880  -27.6700   44.7940 F   0  0  0  0  0  0  0  0  0  0  0  0
   24.0060  -26.4290   44.0050 F   0  0  0  0  0  0  0  0  0  0  0  0
   19.9850  -25.6290   43.1020 C   0  0  0  0  0  0  0  0  0  0  0  0
   19.6960  -24.5270   44.1510 C   0  0  0  0  0  0  0  0  0  0  0  0
   20.0302  -22.6624   45.7397 H   0  0  0  0  0  0  0  0  0  0  0  0
   20.6402  -21.3724   44.6487 H   0  0  0  0  0  0  0  0  0  0  0  0
   18.8950  -21.7977   44.6487 H   0  0  0  0  0  0  0  0  0  0  0  0
   19.6360  -22.9100   42.8780 H   0  0  0  0  0  0  0  0  0  0  0  0
   21.9226  -22.2810   42.9927 H   0  0  0  0  0  0  0  0  0  0  0  0
   22.1422  -23.5242   44.3018 H   0  0  0  0  0  0  0  0  0  0  0  0
   21.4153  -24.0850   41.3764 H   0  0  0  0  0  0  0  0  0  0  0  0
   23.0045  -24.3893   42.1628 H   0  0  0  0  0  0  0  0  0  0  0  0
   20.5357  -26.1182   40.2906 H   0  0  0  0  0  0  0  0  0  0  0  0
   21.1645  -31.7326   36.9322 H   0  0  0  0  0  0  0  0  0  0  0  0
   20.2860  -32.3560   34.6787 H   0  0  0  0  0  0  0  0  0  0  0  0
   19.2625  -30.6159   33.2111 H   0  0  0  0  0  0  0  0  0  0  0  0
   19.2580  -28.0940   32.8900 H   0  0  0  0  0  0  0  0  0  0  0  0
   20.8070  -25.0370   37.6870 H   0  0  0  0  0  0  0  0  0  0  0  0
   22.8315  -29.7137   39.6415 H   0  0  0  0  0  0  0  0  0  0  0  0
   23.7897  -29.5086   41.9231 H   0  0  0  0  0  0  0  0  0  0  0  0
   19.4192  -25.4154   42.1831 H   0  0  0  0  0  0  0  0  0  0  0  0
   19.6798  -26.6048   43.5079 H   0  0  0  0  0  0  0  0  0  0  0  0
   18.6113  -24.4841   44.3288 H   0  0  0  0  0  0  0  0  0  0  0  0
   20.2446  -24.7851   45.0688 H   0  0  0  0  0  0  0  0  0  0  0  0
  1  2  1  0
  2  3  1  0
  3  4  1  0
  4  5  1  0
  5  6  1  0
  6  7  2  0
  7  8  1  0
  8  9  1  0
  9 10  1  0
 10 11  1  0
 11 12  2  0
 12 13  1  0
 13 14  2  0
 14 15  1  0
 15 16  1  0
 15 17  2  0
 17 18  1  0
 18 19  2  0
 18 20  1  0
 20 21  1  0
  8 22  2  0
 22 23  1  0
 23 24  2  0
 24 25  1  0
 25 26  1  0
 25 27  1  0
 25 28  1  0
  5 29  1  0
 29 30  1  0
 30  2  1  0
 24  6  1  0
 20  9  2  0
 17 11  1  0
  1 31  1  0
  1 32  1  0
  1 33  1  0
  2 34  1  0
  3 35  1  0
  3 36  1  0
  4 37  1  0
  4 38  1  0
  7 39  1  0
 12 40  1  0
 13 41  1  0
 14 42  1  0
 16 43  1  0
 21 44  1  0
 22 45  1  0
 23 46  1  0
 29 47  1  0
 29 48  1  0
 30 49  1  0
 30 50  1  0
M  CHG  1   2   1
M  END
>  <meeko>  (8) 
{"is_sidechain": [false], "free_energy": -8.636, "intermolecular_energy": -11.119, "internal_energy": -0.264}

$$$$
cand_056_out
     RDKit          3D

 50 53  0  0  0  0  0  0  0  0999 V2000
   15.2900  -24.0970   36.5420 C   0  0  0  0  0  0  0  0  0  0  0  0
   16.4190  -24.7730   37.1790 N   0  0  0  0  0  0  0  0  0  0  0  0
   16.2660  -26.2440   37.0810 C   0  0  0  0  0  0  0  0  0  0  0  0
   17.4670  -27.0040   37.6920 C   0  0  0  0  0  0  0  0  0  0  0  0
   18.7220  -26.5730   37.0340 N   0  0  0  0  0  0  0  0  0  0  0  0
   19.8500  -27.3100   37.4380 C   0  0  0  0  0  0  0  0  0  0  0  0
   20.3990  -27.1830   38.7290 C   0  0  0  0  0  0  0  0  0  0  0  0
   21.5180  -27.9250   39.1360 C   0  0  0  0  0  0  0  0  0  0  0  0
   22.1000  -27.7740   40.4850 C   0  0  0  0  0  0  0  0  0  0  0  0
   22.8650  -28.8680   40.8700 O   0  0  0  0  0  0  0  0  0  0  0  0
   23.4650  -28.8570   42.1030 C   0  0  0  0  0  0  0  0  0  0  0  0
   24.2360  -29.9700   42.4430 C   0  0  0  0  0  0  0  0  0  0  0  0
   24.8720  -30.0230   43.6850 C   0  0  0  0  0  0  0  0  0  0  0  0
   24.7380  -28.9640   44.5860 C   0  0  0  0  0  0  0  0  0  0  0  0
   23.9680  -27.8560   44.2450 C   0  0  0  0  0  0  0  0  0  0  0  0
   23.8780  -26.8560   45.1750 O   0  0  0  0  0  0  0  0  0  0  0  0
   23.3310  -27.8030   43.0020 C   0  0  0  0  0  0  0  0  0  0  0  0
   22.5130  -26.6570   42.6050 C   0  0  0  0  0  0  0  0  0  0  0  0
   22.3400  -25.6900   43.3450 O   0  0  0  0  0  0  0  0  0  0  0  0
   21.8870  -26.6950   41.2620 C   0  0  0  0  0  0  0  0  0  0  0  0
   21.1050  -25.6140   40.9000 O   0  0  0  0  0  0  0  0  0  0  0  0
   22.1090  -28.7960   38.2150 C   0  0  0  0  0  0  0  0  0  0  0  0
   21.5830  -28.9320   36.9300 C   0  0  0  0  0  0  0  0  0  0  0  0
   20.4530  -28.1960   36.5280 C   0  0  0  0  0  0  0  0  0  0  0  0
   19.9020  -28.3640   35.1330 C   0  0  0  0  0  0  0  0  0  0  0  0
   18.7030  -29.0260   35.1170 F   0  0  0  0  0  0  0  0  0  0  0  0
   20.7110  -29.0900   34.3080 F   0  0  0  0  0  0  0  0  0  0  0  0
   19.6560  -27.1840   34.4930 F   0  0  0  0  0  0  0  0  0  0  0  0
   18.9140  -25.1070   37.1390 C   0  0  0  0  0  0  0  0  0  0  0  0
   17.6930  -24.3720   36.5370 C   0  0  0  0  0  0  0  0  0  0  0  0
   14.6192  -23.6953   37.3157 H   0  0  0  0  0  0  0  0  0  0  0  0
   15.6621  -23.2729   35.9155 H   0  0  0  0  0  0  0  0  0  0  0  0
   14.7393  -24.8141   35.9155 H   0  0  0  0  0  0  0  0  0  0  0  0
   16.4350  -24.4990   38.1610 H   0  0  0  0  0  0  0  0  0  0  0  0
   15.3515  -26.5404   37.6156 H   0  0  0  0  0  0  0  0  0  0  0  0
   16.2117  -26.5051   36.0138 H   0  0  0  0  0  0  0  0  0  0  0  0
   17.5264  -26.7874   38.7688 H   0  0  0  0  0  0  0  0  0  0  0  0
   17.3291  -28.0844   37.5378 H   0  0  0  0  0  0  0  0  0  0  0  0
   19.9367  -26.4814   39.4390 H   0  0  0  0  0  0  0  0  0  0  0  0
   24.3423  -30.8040   41.7336 H   0  0  0  0  0  0  0  0  0  0  0  0
   25.4793  -30.8998   43.9542 H   0  0  0  0  0  0  0  0  0  0  0  0
   25.2404  -29.0058   45.5637 H   0  0  0  0  0  0  0  0  0  0  0  0
   23.0410  -26.6150   45.5230 H   0  0  0  0  0  0  0  0  0  0  0  0
   20.7590  -25.5560   40.0310 H   0  0  0  0  0  0  0  0  0  0  0  0
   22.9956  -29.3784   38.5061 H   0  0  0  0  0  0  0  0  0  0  0  0
   22.0587  -29.6250   36.2204 H   0  0  0  0  0  0  0  0  0  0  0  0
   19.0222  -24.8281   38.1976 H   0  0  0  0  0  0  0  0  0  0  0  0
   19.8195  -24.8195   36.5845 H   0  0  0  0  0  0  0  0  0  0  0  0
   17.8309  -23.2890   36.6718 H   0  0  0  0  0  0  0  0  0  0  0  0
   17.6311  -24.6411   35.4722 H   0  0  0  0  0  0  0  0  0  0  0  0
  1  2  1  0
  2  3  1  0
  3  4  1  0
  4  5  1  0
  5  6  1  0
  6  7  2  0
  7  8  1  0
  8  9  1  0
  9 10  1  0
 10 11  1  0
 11 12  2  0
 12 13  1  0
 13 14  2  0
 14 15  1  0
 15 16  1  0
 15 17  2  0
 17 18  1  0
 18 19  2  0
 18 20  1  0
 20 21  1  0
  8 22  2  0
 22 23  1  0
 23 24  2  0
 24 25  1  0
 25 26  1  0
 25 27  1  0
 25 28  1  0
  5 29  1  0
 29 30  1  0
 30  2  1  0
 24  6  1  0
 20  9  2  0
 17 11  1  0
  1 31  1  0
  1 32  1  0
  1 33  1  0
  2 34  1  0
  3 35  1  0
  3 36  1  0
  4 37  1  0
  4 38  1  0
  7 39  1  0
 12 40  1  0
 13 41  1  0
 14 42  1  0
 16 43  1  0
 21 44  1  0
 22 45  1  0
 23 46  1  0
 29 47  1  0
 29 48  1  0
 30 49  1  0
 30 50  1  0
M  CHG  1   2   1
M  END
>  <meeko>  (9) 
{"is_sidechain": [false], "free_energy": -8.318, "intermolecular_energy": -10.832, "internal_energy": -0.159}

$$$$
