cand_047_out
     RDKit          3D

 38 40  0  0  0  0  0  0  0  0999 V2000
   24.9130  -29.8440   42.8330 C   0  0  0  0  0  0  0  0  0  0  0  0
   23.7450  -29.2190   42.1210 C   0  0  0  0  0  0  0  0  0  0  0  0
   23.0930  -29.9570   41.1140 C   0  0  0  0  0  0  0  0  0  0  0  0
   22.0010  -29.4330   40.4070 C   0  0  0  0  0  0  0  0  0  0  0  0
   21.3290  -30.1980   39.3340 C   0  0  0  0  0  0  0  0  0  0  0  0
   20.5710  -31.2570   39.8190 O   0  0  0  0  0  0  0  0  0  0  0  0
   19.8920  -32.0480   38.9290 C   0  0  0  0  0  0  0  0  0  0  0  0
   19.1310  -33.0910   39.4600 C   0  0  0  0  0  0  0  0  0  0  0  0
   18.4160  -33.9360   38.6080 C   0  0  0  0  0  0  0  0  0  0  0  0
   18.4650  -33.7410   37.2260 C   0  0  0  0  0  0  0  0  0  0  0  0
   19.2260  -32.7010   36.6980 C   0  0  0  0  0  0  0  0  0  0  0  0
   19.2300  -32.5670   35.3380 O   0  0  0  0  0  0  0  0  0  0  0  0
   19.9390  -31.8540   37.5520 C   0  0  0  0  0  0  0  0  0  0  0  0
   20.7520  -30.7500   37.0380 C   0  0  0  0  0  0  0  0  0  0  0  0
   20.8500  -30.5190   35.8350 O   0  0  0  0  0  0  0  0  0  0  0  0
   21.4630  -29.9060   38.0260 C   0  0  0  0  0  0  0  0  0  0  0  0
   22.2370  -28.8730   37.5310 O   0  0  0  0  0  0  0  0  0  0  0  0
   21.5750  -28.1360   40.7070 C   0  0  0  0  0  0  0  0  0  0  0  0
   22.2140  -27.3870   41.6990 C   0  0  0  0  0  0  0  0  0  0  0  0
   23.3040  -27.9140   42.4120 C   0  0  0  0  0  0  0  0  0  0  0  0
   23.9370  -27.0630   43.4880 C   0  0  0  0  0  0  0  0  0  0  0  0
   23.0970  -27.0190   44.7540 C   0  0  0  0  0  0  0  0  0  0  0  0
   22.6610  -28.2790   45.0310 F   0  0  0  0  0  0  0  0  0  0  0  0
   24.7649  -29.7647   43.9201 H   0  0  0  0  0  0  0  0  0  0  0  0
   24.9905  -30.9041   42.5498 H   0  0  0  0  0  0  0  0  0  0  0  0
   25.8380  -29.3203   42.5498 H   0  0  0  0  0  0  0  0  0  0  0  0
   23.4493  -30.9701   40.8760 H   0  0  0  0  0  0  0  0  0  0  0  0
   19.0945  -33.2472   40.5482 H   0  0  0  0  0  0  0  0  0  0  0  0
   17.8136  -34.7560   39.0261 H   0  0  0  0  0  0  0  0  0  0  0  0
   17.9033  -34.4079   36.5554 H   0  0  0  0  0  0  0  0  0  0  0  0
   20.0430  -32.5620   34.8700 H   0  0  0  0  0  0  0  0  0  0  0  0
   22.0750  -28.5380   36.6710 H   0  0  0  0  0  0  0  0  0  0  0  0
   20.7281  -27.7003   40.1567 H   0  0  0  0  0  0  0  0  0  0  0  0
   21.8586  -26.3707   41.9247 H   0  0  0  0  0  0  0  0  0  0  0  0
   24.9253  -27.4791   43.7330 H   0  0  0  0  0  0  0  0  0  0  0  0
   24.0193  -26.0364   43.1016 H   0  0  0  0  0  0  0  0  0  0  0  0
   23.7065  -26.6457   45.5902 H   0  0  0  0  0  0  0  0  0  0  0  0
   22.2377  -26.3473   44.6113 H   0  0  0  0  0  0  0  0  0  0  0  0
  1  2  1  0
  2  3  2  0
  3  4  1  0
  4  5  1  0
  5  6  1  0
  6  7  1  0
  7  8  2  0
  8  9  1  0
  9 10  2  0
 10 11  1  0
 11 12  1  0
 11 13  2  0
 13 14  1  0
 14 15  2  0
 14 16  1  0
 16 17  1  0
  4 18  2  0
 18 19  1  0
 19 20  2  0
 20 21  1  0
 21 22  1  0
 22 23  1  0
 20  2  1  0
 16  5  2  0
 13  7  1  0
  1 24  1  0
  1 25  1  0
  1 26  1  0
  3 27  1  0
  8 28  1  0
  9 29  1  0
 10 30  1  0
 12 31  1  0
 17 32  1  0
 18 33  1  0
 19 34  1  0
 21 35  1  0
 21 36  1  0
 22 37  1  0
 22 38  1  0
M  END
>  <meeko>  (1) 
{"is_sidechain": [false], "free_energy": -9.166, "intermolecular_energy": -11.309, "internal_energy": -0.574}

$$$$
cand_047_out
     RDKit          3D

 38 40  0  0  0  0  0  0  0  0999 V2000
   20.8290  -26.2300   41.9220 C   0  0  0  0  0  0  0  0  0  0  0  0
   21.5580  -27.4740   41.4960 C   0  0  0  0  0  0  0  0  0  0  0  0
   20.9540  -28.3200   40.5450 C   0  0  0  0  0  0  0  0  0  0  0  0
   21.5760  -29.4980   40.1080 C   0  0  0  0  0  0  0  0  0  0  0  0
   20.9340  -30.3980   39.1250 C   0  0  0  0  0  0  0  0  0  0  0  0
   20.2790  -31.4700   39.7200 O   0  0  0  0  0  0  0  0  0  0  0  0
   19.6380  -32.3820   38.9220 C   0  0  0  0  0  0  0  0  0  0  0  0
   18.9810  -33.4330   39.5630 C   0  0  0  0  0  0  0  0  0  0  0  0
   18.3100  -34.3980   38.8080 C   0  0  0  0  0  0  0  0  0  0  0  0
   18.2980  -34.3130   37.4140 C   0  0  0  0  0  0  0  0  0  0  0  0
   18.9560  -33.2640   36.7770 C   0  0  0  0  0  0  0  0  0  0  0  0
   18.9050  -33.2410   35.4110 O   0  0  0  0  0  0  0  0  0  0  0  0
   19.6260  -32.2970   37.5340 C   0  0  0  0  0  0  0  0  0  0  0  0
   20.3290  -31.1780   36.9040 C   0  0  0  0  0  0  0  0  0  0  0  0
   20.3700  -31.0390   35.6830 O   0  0  0  0  0  0  0  0  0  0  0  0
   21.0010  -30.2040   37.7940 C   0  0  0  0  0  0  0  0  0  0  0  0
   21.6740  -29.1580   37.1900 O   0  0  0  0  0  0  0  0  0  0  0  0
   22.8160  -29.8390   40.6550 C   0  0  0  0  0  0  0  0  0  0  0  0
   23.4260  -29.0150   41.6050 C   0  0  0  0  0  0  0  0  0  0  0  0
   22.8070  -27.8310   42.0380 C   0  0  0  0  0  0  0  0  0  0  0  0
   23.5290  -26.9710   43.0500 C   0  0  0  0  0  0  0  0  0  0  0  0
   23.8830  -27.7440   44.3110 C   0  0  0  0  0  0  0  0  0  0  0  0
   22.7480  -28.3070   44.8100 F   0  0  0  0  0  0  0  0  0  0  0  0
   20.7998  -26.1801   43.0205 H   0  0  0  0  0  0  0  0  0  0  0  0
   21.3518  -25.3458   41.5286 H   0  0  0  0  0  0  0  0  0  0  0  0
   19.8020  -26.2539   41.5286 H   0  0  0  0  0  0  0  0  0  0  0  0
   19.9697  -28.0495   40.1351 H   0  0  0  0  0  0  0  0  0  0  0  0
   18.9914  -33.5015   40.6608 H   0  0  0  0  0  0  0  0  0  0  0  0
   17.7903  -35.2261   39.3122 H   0  0  0  0  0  0  0  0  0  0  0  0
   17.7696  -35.0734   36.8202 H   0  0  0  0  0  0  0  0  0  0  0  0
   18.9980  -34.0380   34.9260 H   0  0  0  0  0  0  0  0  0  0  0  0
   21.7010  -28.3180   37.6040 H   0  0  0  0  0  0  0  0  0  0  0  0
   23.3167  -30.7647   40.3349 H   0  0  0  0  0  0  0  0  0  0  0  0
   24.4049  -29.2979   42.0194 H   0  0  0  0  0  0  0  0  0  0  0  0
   24.4557  -26.5910   42.5953 H   0  0  0  0  0  0  0  0  0  0  0  0
   22.8570  -26.1482   43.3353 H   0  0  0  0  0  0  0  0  0  0  0  0
   24.6121  -28.5317   44.0701 H   0  0  0  0  0  0  0  0  0  0  0  0
   24.3239  -27.0652   45.0559 H   0  0  0  0  0  0  0  0  0  0  0  0
  1  2  1  0
  2  3  2  0
  3  4  1  0
  4  5  1  0
  5  6  1  0
  6  7  1  0
  7  8  2  0
  8  9  1  0
  9 10  2  0
 10 11  1  0
 11 12  1  0
 11 13  2  0
 13 14  1  0
 14 15  2  0
 14 16  1  0
 16 17  1  0
  4 18  2  0
 18 19  1  0
 19 20  2  0
 20 21  1  0
 21 22  1  0
 22 23  1  0
 20  2  1  0
 16  5  2  0
 13  7  1  0
  1 24  1  0
  1 25  1  0
  1 26  1  0
  3 27  1  0
  8 28  1  0
  9 29  1  0
 10 30  1  0
 12 31  1  0
 17 32  1  0
 18 33  1  0
 19 34  1  0
 21 35  1  0
 21 36  1  0
 22 37  1  0
 22 38  1  0
M  END
>  <meeko>  (2) 
{"is_sidechain": [false], "free_energy": -9.141, "intermolecular_energy": -11.247, "internal_energy": -0.605}

$$$$
cand_047_out
     RDKit          3D

 38 40  0  0  0  0  0  0  0  0999 V2000
   19.2660  -32.7530   39.3050 C   0  0  0  0  0  0  0  0  0  0  0  0
   19.9800  -31.5400   38.7740 C   0  0  0  0  0  0  0  0  0  0  0  0
   20.4620  -30.5840   39.6900 C   0  0  0  0  0  0  0  0  0  0  0  0
   21.1320  -29.4280   39.2630 C   0  0  0  0  0  0  0  0  0  0  0  0
   21.6190  -28.4130   40.2220 C   0  0  0  0  0  0  0  0  0  0  0  0
   22.4840  -28.9390   41.1740 O   0  0  0  0  0  0  0  0  0  0  0  0
   23.0120  -28.1040   42.1240 C   0  0  0  0  0  0  0  0  0  0  0  0
   23.8880  -28.6720   43.0500 C   0  0  0  0  0  0  0  0  0  0  0  0
   24.4600  -27.8760   44.0460 C   0  0  0  0  0  0  0  0  0  0  0  0
   24.1540  -26.5160   44.1170 C   0  0  0  0  0  0  0  0  0  0  0  0
   23.2790  -25.9520   43.1930 C   0  0  0  0  0  0  0  0  0  0  0  0
   23.0220  -24.6150   43.3200 O   0  0  0  0  0  0  0  0  0  0  0  0
   22.7090  -26.7490   42.1950 C   0  0  0  0  0  0  0  0  0  0  0  0
   21.7840  -26.1960   41.2040 C   0  0  0  0  0  0  0  0  0  0  0  0
   21.4600  -25.0100   41.2050 O   0  0  0  0  0  0  0  0  0  0  0  0
   21.2400  -27.1220   40.1830 C   0  0  0  0  0  0  0  0  0  0  0  0
   20.3580  -26.5930   39.2590 O   0  0  0  0  0  0  0  0  0  0  0  0
   21.2990  -29.2250   37.8910 C   0  0  0  0  0  0  0  0  0  0  0  0
   20.8220  -30.1600   36.9680 C   0  0  0  0  0  0  0  0  0  0  0  0
   20.1570  -31.3210   37.3950 C   0  0  0  0  0  0  0  0  0  0  0  0
   19.6850  -32.3050   36.3490 C   0  0  0  0  0  0  0  0  0  0  0  0
   20.0900  -31.8880   34.9440 C   0  0  0  0  0  0  0  0  0  0  0  0
   20.4300  -33.0020   34.2400 F   0  0  0  0  0  0  0  0  0  0  0  0
   19.2777  -32.7332   40.4048 H   0  0  0  0  0  0  0  0  0  0  0  0
   18.2251  -32.7508   38.9493 H   0  0  0  0  0  0  0  0  0  0  0  0
   19.7731  -33.6620   38.9493 H   0  0  0  0  0  0  0  0  0  0  0  0
   20.3091  -30.7483   40.7669 H   0  0  0  0  0  0  0  0  0  0  0  0
   24.1278  -29.7442   42.9960 H   0  0  0  0  0  0  0  0  0  0  0  0
   25.1525  -28.3219   44.7752 H   0  0  0  0  0  0  0  0  0  0  0  0
   24.6038  -25.8907   44.9022 H   0  0  0  0  0  0  0  0  0  0  0  0
   22.6950  -24.1300   42.5870 H   0  0  0  0  0  0  0  0  0  0  0  0
   19.5050  -26.3170   39.5320 H   0  0  0  0  0  0  0  0  0  0  0  0
   21.8113  -28.3197   37.5332 H   0  0  0  0  0  0  0  0  0  0  0  0
   20.9695  -29.9841   35.8922 H   0  0  0  0  0  0  0  0  0  0  0  0
   20.1231  -33.2903   36.5662 H   0  0  0  0  0  0  0  0  0  0  0  0
   18.5862  -32.3381   36.3879 H   0  0  0  0  0  0  0  0  0  0  0  0
   19.2475  -31.3811   34.4508 H   0  0  0  0  0  0  0  0  0  0  0  0
   20.9450  -31.1974   34.9894 H   0  0  0  0  0  0  0  0  0  0  0  0
  1  2  1  0
  2  3  2  0
  3  4  1  0
  4  5  1  0
  5  6  1  0
  6  7  1  0
  7  8  2  0
  8  9  1  0
  9 10  2  0
 10 11  1  0
 11 12  1  0
 11 13  2  0
 13 14  1  0
 14 15  2  0
 14 16  1  0
 16 17  1  0
  4 18  2  0
 18 19  1  0
 19 20  2  0
 20 21  1  0
 21 22  1  0
 22 23  1  0
 20  2  1  0
 16  5  2  0
 13  7  1  0
  1 24  1  0
  1 25  1  0
  1 26  1  0
  3 27  1  0
  8 28  1  0
  9 29  1  0
 10 30  1  0
 12 31  1  0
 17 32  1  0
 18 33  1  0
 19 34  1  0
 21 35  1  0
 21 36  1  0
 22 37  1  0
 22 38  1  0
M  END
>  <meeko>  (3) 
{"is_sidechain": [false], "free_energy": -8.323, "intermolecular_energy": -10.616, "internal_energy": -0.228}

$$$$
cand_047_out
     RDKit          3D

 38 40  0  0  0  0  0  0  0  0999 V2000
   18.6930  -26.4830   39.8570 C   0  0  0  0  0  0  0  0  0  0  0  0
   19.7310  -27.5650   39.7280 C   0  0  0  0  0  0  0  0  0  0  0  0
   19.4390  -28.6910   38.9340 C   0  0  0  0  0  0  0  0  0  0  0  0
   20.3580  -29.7380   38.7750 C   0  0  0  0  0  0  0  0  0  0  0  0
   20.0440  -30.9310   37.9600 C   0  0  0  0  0  0  0  0  0  0  0  0
   20.3590  -30.7650   36.6160 O   0  0  0  0  0  0  0  0  0  0  0  0
   20.1200  -31.7980   35.7470 C   0  0  0  0  0  0  0  0  0  0  0  0
   20.4640  -31.5930   34.4100 C   0  0  0  0  0  0  0  0  0  0  0  0
   20.2460  -32.6050   33.4710 C   0  0  0  0  0  0  0  0  0  0  0  0
   19.6810  -33.8180   33.8690 C   0  0  0  0  0  0  0  0  0  0  0  0
   19.3370  -34.0190   35.2030 C   0  0  0  0  0  0  0  0  0  0  0  0
   18.7870  -35.2300   35.5240 O   0  0  0  0  0  0  0  0  0  0  0  0
   19.5580  -33.0070   36.1420 C   0  0  0  0  0  0  0  0  0  0  0  0
   19.2100  -33.1780   37.5540 C   0  0  0  0  0  0  0  0  0  0  0  0
   18.7030  -34.2130   37.9790 O   0  0  0  0  0  0  0  0  0  0  0  0
   19.4920  -32.0480   38.4700 C   0  0  0  0  0  0  0  0  0  0  0  0
   19.1480  -32.2140   39.7990 O   0  0  0  0  0  0  0  0  0  0  0  0
   21.5810  -29.6560   39.4460 C   0  0  0  0  0  0  0  0  0  0  0  0
   21.8850  -28.5490   40.2430 C   0  0  0  0  0  0  0  0  0  0  0  0
   20.9680  -27.4970   40.3970 C   0  0  0  0  0  0  0  0  0  0  0  0
   21.3650  -26.3170   41.2540 C   0  0  0  0  0  0  0  0  0  0  0  0
   20.8350  -26.4350   42.6740 C   0  0  0  0  0  0  0  0  0  0  0  0
   20.3600  -27.6980   42.8580 F   0  0  0  0  0  0  0  0  0  0  0  0
   18.5016  -26.2835   40.9217 H   0  0  0  0  0  0  0  0  0  0  0  0
   19.0575  -25.5655   39.3718 H   0  0  0  0  0  0  0  0  0  0  0  0
   17.7612  -26.8091   39.3718 H   0  0  0  0  0  0  0  0  0  0  0  0
   18.4653  -28.7506   38.4257 H   0  0  0  0  0  0  0  0  0  0  0  0
   20.9062  -30.6361   34.0957 H   0  0  0  0  0  0  0  0  0  0  0  0
   20.5198  -32.4456   32.4176 H   0  0  0  0  0  0  0  0  0  0  0  0
   19.5079  -34.6138   33.1296 H   0  0  0  0  0  0  0  0  0  0  0  0
   19.0660  -36.0040   35.0750 H   0  0  0  0  0  0  0  0  0  0  0  0
   18.6460  -31.5560   40.2370 H   0  0  0  0  0  0  0  0  0  0  0  0
   22.3123  -30.4716   39.3458 H   0  0  0  0  0  0  0  0  0  0  0  0
   22.8564  -28.5012   40.7569 H   0  0  0  0  0  0  0  0  0  0  0  0
   22.4629  -26.2581   41.2893 H   0  0  0  0  0  0  0  0  0  0  0  0
   20.9300  -25.4118   40.8051 H   0  0  0  0  0  0  0  0  0  0  0  0
   21.6463  -26.2365   43.3898 H   0  0  0  0  0  0  0  0  0  0  0  0
   20.0294  -25.7037   42.8359 H   0  0  0  0  0  0  0  0  0  0  0  0
  1  2  1  0
  2  3  2  0
  3  4  1  0
  4  5  1  0
  5  6  1  0
  6  7  1  0
  7  8  2  0
  8  9  1  0
  9 10  2  0
 10 11  1  0
 11 12  1  0
 11 13  2  0
 13 14  1  0
 14 15  2  0
 14 16  1  0
 16 17  1  0
  4 18  2  0
 18 19  1  0
 19 20  2  0
 20 21  1  0
 21 22  1  0
 22 23  1  0
 20  2  1  0
 16  5  2  0
 13  7  1  0
  1 24  1  0
  1 25  1  0
  1 26  1  0
  3 27  1  0
  8 28  1  0
  9 29  1  0
 10 30  1  0
 12 31  1  0
 17 32  1  0
 18 33  1  0
 19 34  1  0
 21 35  1  0
 21 36  1  0
 22 37  1  0
 22 38  1  0
M  END
>  <meeko>  (4) 
{"is_sidechain": [false], "free_energy": -8.147, "intermolecular_energy": -10.103, "internal_energy": -0.523}

$$$$
cand_047_out
     RDKit          3D

 38 40  0  0  0  0  0  0  0  0999 V2000
   19.0590  -32.2930   38.7620 C   0  0  0  0  0  0  0  0  0  0  0  0
   20.0590  -31.1800   38.6010 C   0  0  0  0  0  0  0  0  0  0  0  0
   20.5260  -30.5190   39.7530 C   0  0  0  0  0  0  0  0  0  0  0  0
   21.4530  -29.4690   39.6750 C   0  0  0  0  0  0  0  0  0  0  0  0
   21.9280  -28.7590   40.8820 C   0  0  0  0  0  0  0  0  0  0  0  0
   21.1100  -27.6930   41.2390 O   0  0  0  0  0  0  0  0  0  0  0  0
   21.4360  -26.9490   42.3430 C   0  0  0  0  0  0  0  0  0  0  0  0
   20.5790  -25.8980   42.6730 C   0  0  0  0  0  0  0  0  0  0  0  0
   20.8540  -25.0990   43.7860 C   0  0  0  0  0  0  0  0  0  0  0  0
   21.9850  -25.3490   44.5660 C   0  0  0  0  0  0  0  0  0  0  0  0
   22.8380  -26.3980   44.2330 C   0  0  0  0  0  0  0  0  0  0  0  0
   23.9280  -26.5870   45.0380 O   0  0  0  0  0  0  0  0  0  0  0  0
   22.5620  -27.1980   43.1210 C   0  0  0  0  0  0  0  0  0  0  0  0
   23.4330  -28.3100   42.7370 C   0  0  0  0  0  0  0  0  0  0  0  0
   24.4510  -28.5880   43.3680 O   0  0  0  0  0  0  0  0  0  0  0  0
   23.0480  -29.1020   41.5460 C   0  0  0  0  0  0  0  0  0  0  0  0
   23.8840  -30.1420   41.1830 O   0  0  0  0  0  0  0  0  0  0  0  0
   21.8990  -29.0690   38.4120 C   0  0  0  0  0  0  0  0  0  0  0  0
   21.4410  -29.7100   37.2580 C   0  0  0  0  0  0  0  0  0  0  0  0
   20.5170  -30.7650   37.3360 C   0  0  0  0  0  0  0  0  0  0  0  0
   20.0780  -31.4330   36.0530 C   0  0  0  0  0  0  0  0  0  0  0  0
   20.4540  -30.6200   34.8250 C   0  0  0  0  0  0  0  0  0  0  0  0
   21.4500  -31.2680   34.1610 F   0  0  0  0  0  0  0  0  0  0  0  0
   18.8895  -32.4816   39.8324 H   0  0  0  0  0  0  0  0  0  0  0  0
   18.1102  -32.0052   38.2857 H   0  0  0  0  0  0  0  0  0  0  0  0
   19.4464  -33.2057   38.2857 H   0  0  0  0  0  0  0  0  0  0  0  0
   20.1545  -30.8339   40.7393 H   0  0  0  0  0  0  0  0  0  0  0  0
   19.6888  -25.6990   42.0582 H   0  0  0  0  0  0  0  0  0  0  0  0
   20.1783  -24.2716   44.0482 H   0  0  0  0  0  0  0  0  0  0  0  0
   22.2015  -24.7189   45.4412 H   0  0  0  0  0  0  0  0  0  0  0  0
   23.9400  -27.2980   45.6490 H   0  0  0  0  0  0  0  0  0  0  0  0
   23.6290  -30.7310   40.5010 H   0  0  0  0  0  0  0  0  0  0  0  0
   22.6180  -28.2410   38.3257 H   0  0  0  0  0  0  0  0  0  0  0  0
   21.8094  -29.3837   36.2742 H   0  0  0  0  0  0  0  0  0  0  0  0
   20.5585  -32.4202   35.9851 H   0  0  0  0  0  0  0  0  0  0  0  0
   18.9819  -31.5222   36.0765 H   0  0  0  0  0  0  0  0  0  0  0  0
   19.5781  -30.5154   34.1679 H   0  0  0  0  0  0  0  0  0  0  0  0
   20.7949  -29.6191   35.1281 H   0  0  0  0  0  0  0  0  0  0  0  0
  1  2  1  0
  2  3  2  0
  3  4  1  0
  4  5  1  0
  5  6  1  0
  6  7  1  0
  7  8  2  0
  8  9  1  0
  9 10  2  0
 10 11  1  0
 11 12  1  0
 11 13  2  0
 13 14  1  0
 14 15  2  0
 14 16  1  0
 16 17  1  0
  4 18  2  0
 18 19  1  0
 19 20  2  0
 20 21  1  0
 21 22  1  0
 22 23  1  0
 20  2  1  0
 16  5  2  0
 13  7  1  0
  1 24  1  0
  1 25  1  0
  1 26  1  0
  3 27  1  0
  8 28  1  0
  9 29  1  0
 10 30  1  0
 12 31  1  0
 17 32  1  0
 18 33  1  0
 19 34  1  0
 21 35  1  0
 21 36  1  0
 22 37  1  0
 22 38  1  0
M  END
>  <meeko>  (5) 
{"is_sidechain": [false], "free_energy": -8.098, "intermolecular_energy": -10.081, "internal_energy": -0.485}

$$$$
cand_047_out
     RDKit          3D

 38 40  0  0  0  0  0  0  0  0999 V2000
   23.2870  -27.8380   42.6020 C   0  0  0  0  0  0  0  0  0  0  0  0
   22.2060  -27.6180   41.5790 C   0  0  0  0  0  0  0  0  0  0  0  0
   21.8270  -28.6950   40.7540 C   0  0  0  0  0  0  0  0  0  0  0  0
   20.8300  -28.5580   39.7770 C   0  0  0  0  0  0  0  0  0  0  0  0
   20.4460  -29.6810   38.8950 C   0  0  0  0  0  0  0  0  0  0  0  0
   19.7950  -30.7040   39.5740 O   0  0  0  0  0  0  0  0  0  0  0  0
   19.3820  -31.8070   38.8730 C   0  0  0  0  0  0  0  0  0  0  0  0
   18.7190  -32.8030   39.5920 C   0  0  0  0  0  0  0  0  0  0  0  0
   18.2730  -33.9550   38.9380 C   0  0  0  0  0  0  0  0  0  0  0  0
   18.4930  -34.1110   37.5680 C   0  0  0  0  0  0  0  0  0  0  0  0
   19.1550  -33.1170   36.8530 C   0  0  0  0  0  0  0  0  0  0  0  0
   19.3370  -33.3340   35.5160 O   0  0  0  0  0  0  0  0  0  0  0  0
   19.5990  -31.9640   37.5080 C   0  0  0  0  0  0  0  0  0  0  0  0
   20.3000  -30.8950   36.7940 C   0  0  0  0  0  0  0  0  0  0  0  0
   20.5370  -30.9630   35.5900 O   0  0  0  0  0  0  0  0  0  0  0  0
   20.7230  -29.7110   37.5770 C   0  0  0  0  0  0  0  0  0  0  0  0
   21.3950  -28.7130   36.8960 O   0  0  0  0  0  0  0  0  0  0  0  0
   20.2220  -27.3100   39.6170 C   0  0  0  0  0  0  0  0  0  0  0  0
   20.5910  -26.2290   40.4230 C   0  0  0  0  0  0  0  0  0  0  0  0
   21.5840  -26.3670   41.4060 C   0  0  0  0  0  0  0  0  0  0  0  0
   21.9210  -25.1670   42.2610 C   0  0  0  0  0  0  0  0  0  0  0  0
   20.9650  -24.0090   42.0270 C   0  0  0  0  0  0  0  0  0  0  0  0
   21.0620  -23.1450   43.0760 F   0  0  0  0  0  0  0  0  0  0  0  0
   22.8594  -27.7510   43.6118 H   0  0  0  0  0  0  0  0  0  0  0  0
   23.7169  -28.8420   42.4711 H   0  0  0  0  0  0  0  0  0  0  0  0
   24.0751  -27.0818   42.4711 H   0  0  0  0  0  0  0  0  0  0  0  0
   22.3253  -29.6676   40.8791 H   0  0  0  0  0  0  0  0  0  0  0  0
   18.5478  -32.6814   40.6718 H   0  0  0  0  0  0  0  0  0  0  0  0
   17.7482  -34.7394   39.5031 H   0  0  0  0  0  0  0  0  0  0  0  0
   18.1435  -35.0186   37.0542 H   0  0  0  0  0  0  0  0  0  0  0  0
   20.1980  -33.2840   35.1460 H   0  0  0  0  0  0  0  0  0  0  0  0
   22.0100  -28.9370   36.2260 H   0  0  0  0  0  0  0  0  0  0  0  0
   19.4455  -27.1769   38.8494 H   0  0  0  0  0  0  0  0  0  0  0  0
   20.0962  -25.2563   40.2851 H   0  0  0  0  0  0  0  0  0  0  0  0
   21.8693  -25.4607   43.3198 H   0  0  0  0  0  0  0  0  0  0  0  0
   22.9321  -24.8308   41.9878 H   0  0  0  0  0  0  0  0  0  0  0  0
   21.2324  -23.4907   41.0943 H   0  0  0  0  0  0  0  0  0  0  0  0
   19.9343  -24.3842   41.9439 H   0  0  0  0  0  0  0  0  0  0  0  0
  1  2  1  0
  2  3  2  0
  3  4  1  0
  4  5  1  0
  5  6  1  0
  6  7  1  0
  7  8  2  0
  8  9  1  0
  9 10  2  0
 10 11  1  0
 11 12  1  0
 11 13  2  0
 13 14  1  0
 14 15  2  0
 14 16  1  0
 16 17  1  0
  4 18  2  0
 18 19  1  0
 19 20  2  0
 20 21  1  0
 21 22  1  0
 22 23  1  0
 20  2  1  0
 16  5  2  0
 13  7  1  0
  1 24  1  0
  1 25  1  0
  1 26  1  0
  3 27  1  0
  8 28  1  0
  9 29  1  0
 10 30  1  0
 12 31  1  0
 17 32  1  0
 18 33  1  0
 19 34  1  0
 21 35  1  0
 21 36  1  0
 22 37  1  0
 22 38  1  0
M  END
>  <meeko>  (6) 
{"is_sidechain": [false], "free_energy": -8.092, "intermolecular_energy": -10.223, "internal_energy": -0.334}

$$$$
cand_047_out
     RDKit          3D

 38 40  0  0  0  0  0  0  0  0999 V2000
   20.7950  -27.9620   35.5960 C   0  0  0  0  0  0  0  0  0  0  0  0
   20.8520  -28.9110   36.7620 C   0  0  0  0  0  0  0  0  0  0  0  0
   21.4410  -28.4720   37.9630 C   0  0  0  0  0  0  0  0  0  0  0  0
   21.5330  -29.3060   39.0870 C   0  0  0  0  0  0  0  0  0  0  0  0
   22.1710  -28.8540   40.3420 C   0  0  0  0  0  0  0  0  0  0  0  0
   23.0610  -29.7870   40.8620 O   0  0  0  0  0  0  0  0  0  0  0  0
   23.7240  -29.4930   42.0250 C   0  0  0  0  0  0  0  0  0  0  0  0
   24.6190  -30.4510   42.5030 C   0  0  0  0  0  0  0  0  0  0  0  0
   25.3270  -30.2150   43.6850 C   0  0  0  0  0  0  0  0  0  0  0  0
   25.1380  -29.0230   44.3880 C   0  0  0  0  0  0  0  0  0  0  0  0
   24.2430  -28.0700   43.9090 C   0  0  0  0  0  0  0  0  0  0  0  0
   24.1050  -26.9260   44.6470 O   0  0  0  0  0  0  0  0  0  0  0  0
   23.5370  -28.3060   42.7260 C   0  0  0  0  0  0  0  0  0  0  0  0
   22.5870  -27.3300   42.1890 C   0  0  0  0  0  0  0  0  0  0  0  0
   22.3610  -26.2620   42.7540 O   0  0  0  0  0  0  0  0  0  0  0  0
   21.8950  -27.6720   40.9240 C   0  0  0  0  0  0  0  0  0  0  0  0
   20.9910  -26.7490   40.4320 O   0  0  0  0  0  0  0  0  0  0  0  0
   21.0400  -30.6110   38.9880 C   0  0  0  0  0  0  0  0  0  0  0  0
   20.4570  -31.0640   37.8010 C   0  0  0  0  0  0  0  0  0  0  0  0
   20.3600  -30.2270   36.6780 C   0  0  0  0  0  0  0  0  0  0  0  0
   19.6980  -30.7700   35.4320 C   0  0  0  0  0  0  0  0  0  0  0  0
   20.6130  -31.7050   34.6580 C   0  0  0  0  0  0  0  0  0  0  0  0
   21.6130  -30.9710   34.0970 F   0  0  0  0  0  0  0  0  0  0  0  0
   20.7329  -26.9284   35.9672 H   0  0  0  0  0  0  0  0  0  0  0  0
   21.7017  -28.0780   34.9841 H   0  0  0  0  0  0  0  0  0  0  0  0
   19.9087  -28.1857   34.9841 H   0  0  0  0  0  0  0  0  0  0  0  0
   21.8394  -27.4483   38.0214 H   0  0  0  0  0  0  0  0  0  0  0  0
   24.7672  -31.3905   41.9505 H   0  0  0  0  0  0  0  0  0  0  0  0
   26.0338  -30.9689   44.0619 H   0  0  0  0  0  0  0  0  0  0  0  0
   25.6951  -28.8375   45.3182 H   0  0  0  0  0  0  0  0  0  0  0  0
   24.3860  -26.1050   44.2930 H   0  0  0  0  0  0  0  0  0  0  0  0
   21.2650  -26.1200   39.7940 H   0  0  0  0  0  0  0  0  0  0  0  0
   21.1117  -31.2874   39.8525 H   0  0  0  0  0  0  0  0  0  0  0  0
   20.0684  -32.0916   37.7460 H   0  0  0  0  0  0  0  0  0  0  0  0
   18.7921  -31.3217   35.7236 H   0  0  0  0  0  0  0  0  0  0  0  0
   19.4548  -29.9183   34.7797 H   0  0  0  0  0  0  0  0  0  0  0  0
   21.0414  -32.4532   35.3412 H   0  0  0  0  0  0  0  0  0  0  0  0
   20.0425  -32.2231   33.8731 H   0  0  0  0  0  0  0  0  0  0  0  0
  1  2  1  0
  2  3  2  0
  3  4  1  0
  4  5  1  0
  5  6  1  0
  6  7  1  0
  7  8  2  0
  8  9  1  0
  9 10  2  0
 10 11  1  0
 11 12  1  0
 11 13  2  0
 13 14  1  0
 14 15  2  0
 14 16  1  0
 16 17  1  0
  4 18  2  0
 18 19  1  0
 19 20  2  0
 20 21  1  0
 21 22  1  0
 22 23  1  0
 20  2  1  0
 16  5  2  0
 13  7  1  0
  1 24  1  0
  1 25  1  0
  1 26  1  0
  3 27  1  0
  8 28  1  0
  9 29  1  0
 10 30  1  0
 12 31  1  0
 17 32  1  0
 18 33  1  0
 19 34  1  0
 21 35  1  0
 21 36  1  0
 22 37  1  0
 22 38  1  0
M  END
>  <meeko>  (7) 
{"is_sidechain": [false], "free_energy": -7.972, "intermolecular_energy": -10.07, "internal_energy": -0.34}

$$$$
cand_047_out
     RDKit          3D

 38 40  0  0  0  0  0  0  0  0999 V2000
   24.3380  -27.3590   43.8650 C   0  0  0  0  0  0  0  0  0  0  0  0
   23.0050  -27.0950   43.2210 C   0  0  0  0  0  0  0  0  0  0  0  0
   22.6710  -27.7960   42.0460 C   0  0  0  0  0  0  0  0  0  0  0  0
   21.4480  -27.5950   41.3900 C   0  0  0  0  0  0  0  0  0  0  0  0
   21.1050  -28.3140   40.1450 C   0  0  0  0  0  0  0  0  0  0  0  0
   20.6910  -29.6210   40.3720 O   0  0  0  0  0  0  0  0  0  0  0  0
   20.3400  -30.4010   39.3000 C   0  0  0  0  0  0  0  0  0  0  0  0
   19.9170  -31.7020   39.5750 C   0  0  0  0  0  0  0  0  0  0  0  0
   19.5470  -32.5510   38.5290 C   0  0  0  0  0  0  0  0  0  0  0  0
   19.6030  -32.0990   37.2090 C   0  0  0  0  0  0  0  0  0  0  0  0
   20.0270  -30.8010   36.9370 C   0  0  0  0  0  0  0  0  0  0  0  0
   20.0590  -30.4240   35.6230 O   0  0  0  0  0  0  0  0  0  0  0  0
   20.3950  -29.9520   37.9850 C   0  0  0  0  0  0  0  0  0  0  0  0
   20.8470  -28.5810   37.7420 C   0  0  0  0  0  0  0  0  0  0  0  0
   20.9300  -28.1130   36.6090 O   0  0  0  0  0  0  0  0  0  0  0  0
   21.2070  -27.7600   38.9220 C   0  0  0  0  0  0  0  0  0  0  0  0
   21.6450  -26.4700   38.6810 O   0  0  0  0  0  0  0  0  0  0  0  0
   20.5570  -26.6550   41.9180 C   0  0  0  0  0  0  0  0  0  0  0  0
   20.8750  -25.9460   43.0790 C   0  0  0  0  0  0  0  0  0  0  0  0
   22.0970  -26.1520   43.7400 C   0  0  0  0  0  0  0  0  0  0  0  0
   22.3720  -25.3710   45.0040 C   0  0  0  0  0  0  0  0  0  0  0  0
   21.2130  -24.4610   45.3800 C   0  0  0  0  0  0  0  0  0  0  0  0
   21.3770  -23.2640   44.7510 F   0  0  0  0  0  0  0  0  0  0  0  0
   24.2273  -27.3371   44.9592 H   0  0  0  0  0  0  0  0  0  0  0  0
   24.7064  -28.3475   43.5534 H   0  0  0  0  0  0  0  0  0  0  0  0
   25.0554  -26.5855   43.5534 H   0  0  0  0  0  0  0  0  0  0  0  0
   23.3882  -28.5201   41.6321 H   0  0  0  0  0  0  0  0  0  0  0  0
   19.8749  -32.0589   40.6147 H   0  0  0  0  0  0  0  0  0  0  0  0
   19.2114  -33.5760   38.7454 H   0  0  0  0  0  0  0  0  0  0  0  0
   19.3125  -32.7675   36.3852 H   0  0  0  0  0  0  0  0  0  0  0  0
   20.4340  -30.9950   34.9810 H   0  0  0  0  0  0  0  0  0  0  0  0
   21.1250  -25.7410   38.9570 H   0  0  0  0  0  0  0  0  0  0  0  0
   19.5964  -26.4722   41.4141 H   0  0  0  0  0  0  0  0  0  0  0  0
   20.1577  -25.2156   43.4814 H   0  0  0  0  0  0  0  0  0  0  0  0
   22.5478  -26.0793   45.8270 H   0  0  0  0  0  0  0  0  0  0  0  0
   23.2540  -24.7385   44.8253 H   0  0  0  0  0  0  0  0  0  0  0  0
   20.2645  -24.9191   45.0629 H   0  0  0  0  0  0  0  0  0  0  0  0
   21.1909  -24.3124   46.4697 H   0  0  0  0  0  0  0  0  0  0  0  0
  1  2  1  0
  2  3  2  0
  3  4  1  0
  4  5  1  0
  5  6  1  0
  6  7  1  0
  7  8  2  0
  8  9  1  0
  9 10  2  0
 10 11  1  0
 11 12  1  0
 11 13  2  0
 13 14  1  0
 14 15  2  0
 14 16  1  0
 16 17  1  0
  4 18  2  0
 18 19  1  0
 19 20  2  0
 20 21  1  0
 21 22  1  0
 22 23  1  0
 20  2  1  0
 16  5  2  0
 13  7  1  0
  1 24  1  0
  1 25  1  0
  1 26  1  0
  3 27  1  0
  8 28  1  0
  9 29  1  0
 10 30  1  0
 12 31  1  0
 17 32  1  0
 18 33  1  0
 19 34  1  0
 21 35  1  0
 21 36  1  0
 22 37  1  0
 22 38  1  0
M  END
>  <meeko>  (8) 
{"is_sidechain": [false], "free_energy": -7.924, "intermolecular_energy": -9.912, "internal_energy": -0.439}

$$$$
cand_047_out
     RDKit          3D

 38 40  0  0  0  0  0  0  0  0999 V2000
   23.3110  -28.8150   41.7490 C   0  0  0  0  0  0  0  0  0  0  0  0
   22.0060  -28.7280   41.0050 C   0  0  0  0  0  0  0  0  0  0  0  0
   21.7020  -29.7220   40.0550 C   0  0  0  0  0  0  0  0  0  0  0  0
   20.5060  -29.6990   39.3220 C   0  0  0  0  0  0  0  0  0  0  0  0
   20.1950  -30.7290   38.3080 C   0  0  0  0  0  0  0  0  0  0  0  0
   20.5860  -30.3610   37.0260 O   0  0  0  0  0  0  0  0  0  0  0  0
   20.3580  -31.2280   35.9890 C   0  0  0  0  0  0  0  0  0  0  0  0
   20.7800  -30.8250   34.7210 C   0  0  0  0  0  0  0  0  0  0  0  0
   20.5760  -31.6600   33.6200 C   0  0  0  0  0  0  0  0  0  0  0  0
   19.9490  -32.8970   33.7870 C   0  0  0  0  0  0  0  0  0  0  0  0
   19.5270  -33.2960   35.0520 C   0  0  0  0  0  0  0  0  0  0  0  0
   18.9190  -34.5180   35.1440 O   0  0  0  0  0  0  0  0  0  0  0  0
   19.7330  -32.4600   36.1540 C   0  0  0  0  0  0  0  0  0  0  0  0
   19.3050  -32.8420   37.5010 C   0  0  0  0  0  0  0  0  0  0  0  0
   18.7400  -33.9100   37.7260 O   0  0  0  0  0  0  0  0  0  0  0  0
   19.5770  -31.8890   38.6020 C   0  0  0  0  0  0  0  0  0  0  0  0
   19.1580  -32.2530   39.8680 O   0  0  0  0  0  0  0  0  0  0  0  0
   19.6140  -28.6450   39.5390 C   0  0  0  0  0  0  0  0  0  0  0  0
   19.9030  -27.6480   40.4740 C   0  0  0  0  0  0  0  0  0  0  0  0
   21.0970  -27.6730   41.2120 C   0  0  0  0  0  0  0  0  0  0  0  0
   21.3400  -26.5780   42.2250 C   0  0  0  0  0  0  0  0  0  0  0  0
   21.8560  -25.3030   41.5780 C   0  0  0  0  0  0  0  0  0  0  0  0
   23.1400  -25.0970   41.9840 F   0  0  0  0  0  0  0  0  0  0  0  0
   23.1173  -28.8021   42.8317 H   0  0  0  0  0  0  0  0  0  0  0  0
   23.8251  -29.7494   41.4796 H   0  0  0  0  0  0  0  0  0  0  0  0
   23.9446  -27.9571   41.4796 H   0  0  0  0  0  0  0  0  0  0  0  0
   22.4204  -30.5371   39.8833 H   0  0  0  0  0  0  0  0  0  0  0  0
   21.2729  -29.8505   34.5889 H   0  0  0  0  0  0  0  0  0  0  0  0
   20.9093  -31.3432   32.6207 H   0  0  0  0  0  0  0  0  0  0  0  0
   19.7890  -33.5549   32.9201 H   0  0  0  0  0  0  0  0  0  0  0  0
   18.0210  -34.6140   34.8930 H   0  0  0  0  0  0  0  0  0  0  0  0
   19.1140  -31.6110   40.5480 H   0  0  0  0  0  0  0  0  0  0  0  0
   18.6750  -28.6001   38.9678 H   0  0  0  0  0  0  0  0  0  0  0  0
   19.1841  -26.8310   40.6344 H   0  0  0  0  0  0  0  0  0  0  0  0
   20.3941  -26.3560   42.7408 H   0  0  0  0  0  0  0  0  0  0  0  0
   22.1059  -26.9334   42.9300 H   0  0  0  0  0  0  0  0  0  0  0  0
   21.8256  -25.4048   40.4831 H   0  0  0  0  0  0  0  0  0  0  0  0
   21.2273  -24.4506   41.8748 H   0  0  0  0  0  0  0  0  0  0  0  0
  1  2  1  0
  2  3  2  0
  3  4  1  0
  4  5  1  0
  5  6  1  0
  6  7  1  0
  7  8  2  0
  8  9  1  0
  9 10  2  0
 10 11  1  0
 11 12  1  0
 11 13  2  0
 13 14  1  0
 14 15  2  0
 14 16  1  0
 16 17  1  0
  4 18  2  0
 18 19  1  0
 19 20  2  0
 20 21  1  0
 21 22  1  0
 22 23  1  0
 20  2  1  0
 16  5  2  0
 13  7  1  0
  1 24  1  0
  1 25  1  0
  1 26  1  0
  3 27  1  0
  8 28  1  0
  9 29  1  0
 10 30  1  0
 12 31  1  0
 17 32  1  0
 18 33  1  0
 19 34  1  0
 21 35  1  0
 21 36  1  0
 22 37  1  0
 22 38  1  0
M  END
>  <meeko>  (9) 
{"is_sidechain": [false], "free_energy": -7.887, "intermolecular_energy": -9.767, "internal_energy": -0.539}

$$$$
