cand_032_out
     RDKit          3D

 43 45  0  0  0  0  0  0  0  0999 V2000
   21.9370  -23.8860   42.5540 C   0  0  0  0  0  0  0  0  0  0  0  0
   21.8300  -25.1110   41.6560 C   0  0  0  0  0  0  0  0  0  0  0  0
   21.4650  -26.2990   42.4520 N   0  0  0  0  0  0  0  0  0  0  0  0
   20.0270  -26.4610   42.7000 C   0  0  0  0  0  0  0  0  0  0  0  0
   22.0320  -27.4910   41.9440 C   0  0  0  0  0  0  0  0  0  0  0  0
   21.4280  -28.2010   40.8880 C   0  0  0  0  0  0  0  0  0  0  0  0
   21.9860  -29.3800   40.3740 C   0  0  0  0  0  0  0  0  0  0  0  0
   21.3400  -30.1340   39.2790 C   0  0  0  0  0  0  0  0  0  0  0  0
   20.5740  -31.2010   39.7360 O   0  0  0  0  0  0  0  0  0  0  0  0
   19.9180  -31.9870   38.8220 C   0  0  0  0  0  0  0  0  0  0  0  0
   19.1500  -33.0370   39.3260 C   0  0  0  0  0  0  0  0  0  0  0  0
   18.4590  -33.8760   38.4500 C   0  0  0  0  0  0  0  0  0  0  0  0
   18.5350  -33.6650   37.0710 C   0  0  0  0  0  0  0  0  0  0  0  0
   19.3020  -32.6150   36.5720 C   0  0  0  0  0  0  0  0  0  0  0  0
   19.3330  -32.4650   35.2130 O   0  0  0  0  0  0  0  0  0  0  0  0
   19.9940  -31.7760   37.4490 C   0  0  0  0  0  0  0  0  0  0  0  0
   20.8110  -30.6620   36.9660 C   0  0  0  0  0  0  0  0  0  0  0  0
   20.9330  -30.4150   35.7680 O   0  0  0  0  0  0  0  0  0  0  0  0
   21.4980  -29.8270   37.9780 C   0  0  0  0  0  0  0  0  0  0  0  0
   22.2780  -28.7850   37.5100 O   0  0  0  0  0  0  0  0  0  0  0  0
   23.1650  -29.8630   40.9510 C   0  0  0  0  0  0  0  0  0  0  0  0
   23.7760  -29.1750   42.0010 C   0  0  0  0  0  0  0  0  0  0  0  0
   23.2210  -27.9850   42.5070 C   0  0  0  0  0  0  0  0  0  0  0  0
   23.9070  -27.2560   43.6370 C   0  0  0  0  0  0  0  0  0  0  0  0
   23.0730  -26.9320   44.6670 F   0  0  0  0  0  0  0  0  0  0  0  0
   24.8990  -28.0030   44.2180 F   0  0  0  0  0  0  0  0  0  0  0  0
   24.5230  -26.1010   43.2550 F   0  0  0  0  0  0  0  0  0  0  0  0
   21.9095  -24.2003   43.6078 H   0  0  0  0  0  0  0  0  0  0  0  0
   22.8841  -23.3645   42.3515 H   0  0  0  0  0  0  0  0  0  0  0  0
   21.0946  -23.2082   42.3515 H   0  0  0  0  0  0  0  0  0  0  0  0
   21.0583  -24.9348   40.8922 H   0  0  0  0  0  0  0  0  0  0  0  0
   22.8031  -25.2879   41.1745 H   0  0  0  0  0  0  0  0  0  0  0  0
   19.8420  -26.4818   43.7841 H   0  0  0  0  0  0  0  0  0  0  0  0
   19.4803  -25.6188   42.2508 H   0  0  0  0  0  0  0  0  0  0  0  0
   19.6814  -27.4038   42.2508 H   0  0  0  0  0  0  0  0  0  0  0  0
   20.4918  -27.8196   40.4543 H   0  0  0  0  0  0  0  0  0  0  0  0
   19.0891  -33.2035   40.4116 H   0  0  0  0  0  0  0  0  0  0  0  0
   17.8537  -34.7046   38.8461 H   0  0  0  0  0  0  0  0  0  0  0  0
   17.9905  -34.3265   36.3811 H   0  0  0  0  0  0  0  0  0  0  0  0
   19.7480  -33.1140   34.6780 H   0  0  0  0  0  0  0  0  0  0  0  0
   23.1320  -28.9580   37.1680 H   0  0  0  0  0  0  0  0  0  0  0  0
   23.6149  -30.7933   40.5741 H   0  0  0  0  0  0  0  0  0  0  0  0
   24.7049  -29.5689   42.4392 H   0  0  0  0  0  0  0  0  0  0  0  0
  1  2  1  0
  2  3  1  0
  3  4  1  0
  3  5  1  0
  5  6  2  0
  6  7  1  0
  7  8  1  0
  8  9  1  0
  9 10  1  0
 10 11  2  0
 11 12  1  0
 12 13  2  0
 13 14  1  0
 14 15  1  0
 14 16  2  0
 16 17  1  0
 17 18  2  0
 17 19  1  0
 19 20  1  0
  7 21  2  0
 21 22  1  0
 22 23  2  0
 23 24  1  0
 24 25  1  0
 24 26  1  0
 24 27  1  0
 23  5  1  0
 19  8  2  0
 16 10  1  0
  1 28  1  0
  1 29  1  0
  1 30  1  0
  2 31  1  0
  2 32  1  0
  4 33  1  0
  4 34  1  0
  4 35  1  0
  6 36  1  0
 11 37  1  0
 12 38  1  0
 13 39  1  0
 15 40  1  0
 20 41  1  0
 21 42  1  0
 22 43  1  0
M  END
>  <meeko>  (1) 
{"is_sidechain": [false], "free_energy": -9.5, "intermolecular_energy": -12.277, "internal_energy": -0.786}

$$$$
cand_032_out
     RDKit          3D

 43 45  0  0  0  0  0  0  0  0999 V2000
   19.7220  -23.9540   40.5740 C   0  0  0  0  0  0  0  0  0  0  0  0
   20.0160  -25.3950   40.1800 C   0  0  0  0  0  0  0  0  0  0  0  0
   20.4070  -26.1810   41.3660 N   0  0  0  0  0  0  0  0  0  0  0  0
   19.3180  -26.4550   42.3140 C   0  0  0  0  0  0  0  0  0  0  0  0
   21.0990  -27.3680   41.0310 C   0  0  0  0  0  0  0  0  0  0  0  0
   20.5710  -28.2920   40.1080 C   0  0  0  0  0  0  0  0  0  0  0  0
   21.2540  -29.4690   39.7650 C   0  0  0  0  0  0  0  0  0  0  0  0
   20.6880  -30.4460   38.8130 C   0  0  0  0  0  0  0  0  0  0  0  0
   20.1310  -31.5540   39.4420 O   0  0  0  0  0  0  0  0  0  0  0  0
   19.5700  -32.5420   38.6720 C   0  0  0  0  0  0  0  0  0  0  0  0
   19.0100  -33.6270   39.3460 C   0  0  0  0  0  0  0  0  0  0  0  0
   18.4240  -34.6690   38.6230 C   0  0  0  0  0  0  0  0  0  0  0  0
   18.3990  -34.6240   37.2270 C   0  0  0  0  0  0  0  0  0  0  0  0
   18.9580  -33.5380   36.5580 C   0  0  0  0  0  0  0  0  0  0  0  0
   18.8990  -33.5580   35.1910 O   0  0  0  0  0  0  0  0  0  0  0  0
   19.5440  -32.4970   37.2820 C   0  0  0  0  0  0  0  0  0  0  0  0
   20.1430  -31.3380   36.6190 C   0  0  0  0  0  0  0  0  0  0  0  0
   20.1660  -31.2290   35.3940 O   0  0  0  0  0  0  0  0  0  0  0  0
   20.7310  -30.2850   37.4770 C   0  0  0  0  0  0  0  0  0  0  0  0
   21.3070  -29.2010   36.8390 O   0  0  0  0  0  0  0  0  0  0  0  0
   22.4830  -29.7260   40.3810 C   0  0  0  0  0  0  0  0  0  0  0  0
   23.0200  -28.8230   41.3000 C   0  0  0  0  0  0  0  0  0  0  0  0
   22.3400  -27.6380   41.6340 C   0  0  0  0  0  0  0  0  0  0  0  0
   22.9480  -26.6740   42.6250 C   0  0  0  0  0  0  0  0  0  0  0  0
   22.2230  -26.5380   43.7730 F   0  0  0  0  0  0  0  0  0  0  0  0
   24.1910  -27.0690   43.0450 F   0  0  0  0  0  0  0  0  0  0  0  0
   23.1340  -25.4180   42.1300 F   0  0  0  0  0  0  0  0  0  0  0  0
   19.7048  -23.8699   41.6707 H   0  0  0  0  0  0  0  0  0  0  0  0
   20.5044  -23.2959   40.1680 H   0  0  0  0  0  0  0  0  0  0  0  0
   18.7444  -23.6550   40.1680 H   0  0  0  0  0  0  0  0  0  0  0  0
   19.1154  -25.8393   39.7311 H   0  0  0  0  0  0  0  0  0  0  0  0
   20.8433  -25.4059   39.4551 H   0  0  0  0  0  0  0  0  0  0  0  0
   19.6951  -26.3601   43.3430 H   0  0  0  0  0  0  0  0  0  0  0  0
   18.5028  -25.7340   42.1543 H   0  0  0  0  0  0  0  0  0  0  0  0
   18.9410  -27.4760   42.1543 H   0  0  0  0  0  0  0  0  0  0  0  0
   19.5958  -28.0851   39.6430 H   0  0  0  0  0  0  0  0  0  0  0  0
   19.0297  -33.6623   40.4453 H   0  0  0  0  0  0  0  0  0  0  0  0
   17.9820  -35.5254   39.1533 H   0  0  0  0  0  0  0  0  0  0  0  0
   17.9387  -35.4447   36.6573 H   0  0  0  0  0  0  0  0  0  0  0  0
   18.8100  -32.7570   34.7140 H   0  0  0  0  0  0  0  0  0  0  0  0
   22.2000  -29.2410   36.5630 H   0  0  0  0  0  0  0  0  0  0  0  0
   23.0315  -30.6483   40.1390 H   0  0  0  0  0  0  0  0  0  0  0  0
   23.9901  -29.0416   41.7703 H   0  0  0  0  0  0  0  0  0  0  0  0
  1  2  1  0
  2  3  1  0
  3  4  1  0
  3  5  1  0
  5  6  2  0
  6  7  1  0
  7  8  1  0
  8  9  1  0
  9 10  1  0
 10 11  2  0
 11 12  1  0
 12 13  2  0
 13 14  1  0
 14 15  1  0
 14 16  2  0
 16 17  1  0
 17 18  2  0
 17 19  1  0
 19 20  1  0
  7 21  2  0
 21 22  1  0
 22 23  2  0
 23 24  1  0
 24 25  1  0
 24 26  1  0
 24 27  1  0
 23  5  1  0
 19  8  2  0
 16 10  1  0
  1 28  1  0
  1 29  1  0
  1 30  1  0
  2 31  1  0
  2 32  1  0
  4 33  1  0
  4 34  1  0
  4 35  1  0
  6 36  1  0
 11 37  1  0
 12 38  1  0
 13 39  1  0
 15 40  1  0
 20 41  1  0
 21 42  1  0
 22 43  1  0
M  END
>  <meeko>  (2) 
{"is_sidechain": [false], "free_energy": -9.282, "intermolecular_energy": -12.062, "internal_energy": -0.718}

$$$$
cand_032_out
     RDKit          3D

 43 45  0  0  0  0  0  0  0  0999 V2000
   24.0920  -28.6900   45.1970 C   0  0  0  0  0  0  0  0  0  0  0  0
   23.0370  -28.3450   44.1540 C   0  0  0  0  0  0  0  0  0  0  0  0
   23.6400  -28.3100   42.8080 N   0  0  0  0  0  0  0  0  0  0  0  0
   24.4550  -29.4820   42.4620 C   0  0  0  0  0  0  0  0  0  0  0  0
   22.6940  -28.0310   41.7940 C   0  0  0  0  0  0  0  0  0  0  0  0
   22.1960  -29.0470   40.9530 C   0  0  0  0  0  0  0  0  0  0  0  0
   21.2540  -28.7800   39.9490 C   0  0  0  0  0  0  0  0  0  0  0  0
   20.7480  -29.8440   39.0560 C   0  0  0  0  0  0  0  0  0  0  0  0
   20.0850  -30.8550   39.7420 O   0  0  0  0  0  0  0  0  0  0  0  0
   19.5650  -31.9080   39.0320 C   0  0  0  0  0  0  0  0  0  0  0  0
   18.8950  -32.8920   39.7590 C   0  0  0  0  0  0  0  0  0  0  0  0
   18.3440  -33.9920   39.0980 C   0  0  0  0  0  0  0  0  0  0  0  0
   18.4620  -34.1070   37.7110 C   0  0  0  0  0  0  0  0  0  0  0  0
   19.1300  -33.1220   36.9880 C   0  0  0  0  0  0  0  0  0  0  0  0
   19.2090  -33.2960   35.6340 O   0  0  0  0  0  0  0  0  0  0  0  0
   19.6820  -32.0220   37.6500 C   0  0  0  0  0  0  0  0  0  0  0  0
   20.3920  -30.9650   36.9290 C   0  0  0  0  0  0  0  0  0  0  0  0
   20.5440  -30.9970   35.7090 O   0  0  0  0  0  0  0  0  0  0  0  0
   20.9330  -29.8380   37.7230 C   0  0  0  0  0  0  0  0  0  0  0  0
   21.6140  -28.8520   37.0330 O   0  0  0  0  0  0  0  0  0  0  0  0
   20.8230  -27.4610   39.7760 C   0  0  0  0  0  0  0  0  0  0  0  0
   21.3080  -26.4410   40.5970 C   0  0  0  0  0  0  0  0  0  0  0  0
   22.2440  -26.7120   41.6120 C   0  0  0  0  0  0  0  0  0  0  0  0
   22.7460  -25.5920   42.4910 C   0  0  0  0  0  0  0  0  0  0  0  0
   24.0920  -25.6310   42.7140 F   0  0  0  0  0  0  0  0  0  0  0  0
   22.5230  -24.3560   41.9440 F   0  0  0  0  0  0  0  0  0  0  0  0
   22.1490  -25.5410   43.7150 F   0  0  0  0  0  0  0  0  0  0  0  0
   23.6710  -28.5523   46.2039 H   0  0  0  0  0  0  0  0  0  0  0  0
   24.4043  -29.7371   45.0702 H   0  0  0  0  0  0  0  0  0  0  0  0
   24.9626  -28.0298   45.0702 H   0  0  0  0  0  0  0  0  0  0  0  0
   22.2426  -29.1055   44.1761 H   0  0  0  0  0  0  0  0  0  0  0  0
   22.6170  -27.3546   44.3838 H   0  0  0  0  0  0  0  0  0  0  0  0
   24.7979  -29.9751   43.3835 H   0  0  0  0  0  0  0  0  0  0  0  0
   23.8513  -30.1871   41.8717 H   0  0  0  0  0  0  0  0  0  0  0  0
   25.3261  -29.1615   41.8717 H   0  0  0  0  0  0  0  0  0  0  0  0
   22.5562  -30.0775   41.0880 H   0  0  0  0  0  0  0  0  0  0  0  0
   18.8008  -32.8017   40.8512 H   0  0  0  0  0  0  0  0  0  0  0  0
   17.8163  -34.7690   39.6706 H   0  0  0  0  0  0  0  0  0  0  0  0
   18.0282  -34.9738   37.1909 H   0  0  0  0  0  0  0  0  0  0  0  0
   18.5670  -32.9080   35.0720 H   0  0  0  0  0  0  0  0  0  0  0  0
   22.2630  -28.3370   37.4700 H   0  0  0  0  0  0  0  0  0  0  0  0
   20.0951  -27.2248   38.9858 H   0  0  0  0  0  0  0  0  0  0  0  0
   20.9531  -25.4105   40.4481 H   0  0  0  0  0  0  0  0  0  0  0  0
  1  2  1  0
  2  3  1  0
  3  4  1  0
  3  5  1  0
  5  6  2  0
  6  7  1  0
  7  8  1  0
  8  9  1  0
  9 10  1  0
 10 11  2  0
 11 12  1  0
 12 13  2  0
 13 14  1  0
 14 15  1  0
 14 16  2  0
 16 17  1  0
 17 18  2  0
 17 19  1  0
 19 20  1  0
  7 21  2  0
 21 22  1  0
 22 23  2  0
 23 24  1  0
 24 25  1  0
 24 26  1  0
 24 27  1  0
 23  5  1  0
 19  8  2  0
 16 10  1  0
  1 28  1  0
  1 29  1  0
  1 30  1  0
  2 31  1  0
  2 32  1  0
  4 33  1  0
  4 34  1  0
  4 35  1  0
  6 36  1  0
 11 37  1  0
 12 38  1  0
 13 39  1  0
 15 40  1  0
 20 41  1  0
 21 42  1  0
 22 43  1  0
M  END
>  <meeko>  (3) 
{"is_sidechain": [false], "free_energy": -8.586, "intermolecular_energy": -11.844, "internal_energy": -0.036}

$$$$
cand_032_out
     RDKit          3D

 43 45  0  0  0  0  0  0  0  0999 V2000
   24.5580  -28.5460   44.2080 C   0  0  0  0  0  0  0  0  0  0  0  0
   23.1800  -28.0090   44.5710 C   0  0  0  0  0  0  0  0  0  0  0  0
   23.0110  -26.6390   44.0490 N   0  0  0  0  0  0  0  0  0  0  0  0
   24.2200  -26.0450   43.4630 C   0  0  0  0  0  0  0  0  0  0  0  0
   21.9090  -26.5220   43.1710 C   0  0  0  0  0  0  0  0  0  0  0  0
   21.7970  -27.3270   42.0200 C   0  0  0  0  0  0  0  0  0  0  0  0
   20.7040  -27.2210   41.1460 C   0  0  0  0  0  0  0  0  0  0  0  0
   20.5990  -28.0530   39.9300 C   0  0  0  0  0  0  0  0  0  0  0  0
   20.2160  -29.3620   40.2010 O   0  0  0  0  0  0  0  0  0  0  0  0
   20.0810  -30.2430   39.1580 C   0  0  0  0  0  0  0  0  0  0  0  0
   19.6800  -31.5410   39.4740 C   0  0  0  0  0  0  0  0  0  0  0  0
   19.5260  -32.4890   38.4600 C   0  0  0  0  0  0  0  0  0  0  0  0
   19.7710  -32.1390   37.1310 C   0  0  0  0  0  0  0  0  0  0  0  0
   20.1700  -30.8420   36.8190 C   0  0  0  0  0  0  0  0  0  0  0  0
   20.3940  -30.5660   35.4970 O   0  0  0  0  0  0  0  0  0  0  0  0
   20.3250  -29.8940   37.8330 C   0  0  0  0  0  0  0  0  0  0  0  0
   20.7430  -28.5210   37.5490 C   0  0  0  0  0  0  0  0  0  0  0  0
   20.9840  -28.1370   36.4050 O   0  0  0  0  0  0  0  0  0  0  0  0
   20.8690  -27.5910   38.6940 C   0  0  0  0  0  0  0  0  0  0  0  0
   21.2780  -26.3000   38.4150 O   0  0  0  0  0  0  0  0  0  0  0  0
   19.7180  -26.2710   41.4290 C   0  0  0  0  0  0  0  0  0  0  0  0
   19.8140  -25.4620   42.5620 C   0  0  0  0  0  0  0  0  0  0  0  0
   20.9040  -25.5770   43.4440 C   0  0  0  0  0  0  0  0  0  0  0  0
   20.9790  -24.6960   44.6680 C   0  0  0  0  0  0  0  0  0  0  0  0
   21.6360  -23.5190   44.4560 F   0  0  0  0  0  0  0  0  0  0  0  0
   19.7410  -24.3240   45.1230 F   0  0  0  0  0  0  0  0  0  0  0  0
   21.5770  -25.2900   45.7400 F   0  0  0  0  0  0  0  0  0  0  0  0
   25.1201  -28.7651   45.1278 H   0  0  0  0  0  0  0  0  0  0  0  0
   24.4485  -29.4673   43.6170 H   0  0  0  0  0  0  0  0  0  0  0  0
   25.1007  -27.7936   43.6170 H   0  0  0  0  0  0  0  0  0  0  0  0
   22.4096  -28.6615   44.1343 H   0  0  0  0  0  0  0  0  0  0  0  0
   23.0804  -27.9897   45.6663 H   0  0  0  0  0  0  0  0  0  0  0  0
   24.8931  -25.7143   44.2677 H   0  0  0  0  0  0  0  0  0  0  0  0
   24.7322  -26.7941   42.8412 H   0  0  0  0  0  0  0  0  0  0  0  0
   23.9401  -25.1818   42.8412 H   0  0  0  0  0  0  0  0  0  0  0  0
   22.5882  -28.0589   41.8003 H   0  0  0  0  0  0  0  0  0  0  0  0
   19.4853  -31.8177   40.5207 H   0  0  0  0  0  0  0  0  0  0  0  0
   19.2111  -33.5131   38.7090 H   0  0  0  0  0  0  0  0  0  0  0  0
   19.6492  -32.8857   36.3325 H   0  0  0  0  0  0  0  0  0  0  0  0
   20.1720  -29.7250   35.1490 H   0  0  0  0  0  0  0  0  0  0  0  0
   21.9220  -26.1450   37.7540 H   0  0  0  0  0  0  0  0  0  0  0  0
   18.8582  -26.1602   40.7519 H   0  0  0  0  0  0  0  0  0  0  0  0
   19.0256  -24.7233   42.7686 H   0  0  0  0  0  0  0  0  0  0  0  0
  1  2  1  0
  2  3  1  0
  3  4  1  0
  3  5  1  0
  5  6  2  0
  6  7  1  0
  7  8  1  0
  8  9  1  0
  9 10  1  0
 10 11  2  0
 11 12  1  0
 12 13  2  0
 13 14  1  0
 14 15  1  0
 14 16  2  0
 16 17  1  0
 17 18  2  0
 17 19  1  0
 19 20  1  0
  7 21  2  0
 21 22  1  0
 22 23  2  0
 23 24  1  0
 24 25  1  0
 24 26  1  0
 24 27  1  0
 23  5  1  0
 19  8  2  0
 16 10  1  0
  1 28  1  0
  1 29  1  0
  1 30  1  0
  2 31  1  0
  2 32  1  0
  4 33  1  0
  4 34  1  0
  4 35  1  0
  6 36  1  0
 11 37  1  0
 12 38  1  0
 13 39  1  0
 15 40  1  0
 20 41  1  0
 21 42  1  0
 22 43  1  0
M  END
>  <meeko>  (4) 
{"is_sidechain": [false], "free_energy": -8.372, "intermolecular_energy": -11.105, "internal_energy": -0.5}

$$$$
cand_032_out
     RDKit          3D

 43 45  0  0  0  0  0  0  0  0999 V2000
   18.6630  -35.4690   39.2860 C   0  0  0  0  0  0  0  0  0  0  0  0
   19.5380  -34.3470   38.7430 C   0  0  0  0  0  0  0  0  0  0  0  0
   18.7040  -33.2060   38.3210 N   0  0  0  0  0  0  0  0  0  0  0  0
   17.7300  -32.7470   39.3200 C   0  0  0  0  0  0  0  0  0  0  0  0
   19.4690  -32.1260   37.8230 C   0  0  0  0  0  0  0  0  0  0  0  0
   19.8400  -31.0450   38.6470 C   0  0  0  0  0  0  0  0  0  0  0  0
   20.6040  -29.9730   38.1620 C   0  0  0  0  0  0  0  0  0  0  0  0
   20.9750  -28.8310   39.0240 C   0  0  0  0  0  0  0  0  0  0  0  0
   21.8090  -29.1960   40.0750 O   0  0  0  0  0  0  0  0  0  0  0  0
   22.2300  -28.2300   40.9540 C   0  0  0  0  0  0  0  0  0  0  0  0
   23.0780  -28.6380   41.9840 C   0  0  0  0  0  0  0  0  0  0  0  0
   23.5410  -27.7060   42.9150 C   0  0  0  0  0  0  0  0  0  0  0  0
   23.1570  -26.3660   42.8150 C   0  0  0  0  0  0  0  0  0  0  0  0
   22.3120  -25.9630   41.7850 C   0  0  0  0  0  0  0  0  0  0  0  0
   21.9760  -24.6370   41.7460 O   0  0  0  0  0  0  0  0  0  0  0  0
   21.8490  -26.8960   40.8540 C   0  0  0  0  0  0  0  0  0  0  0  0
   20.9590  -26.5140   39.7570 C   0  0  0  0  0  0  0  0  0  0  0  0
   20.5720  -25.3570   39.6050 O   0  0  0  0  0  0  0  0  0  0  0  0
   20.5310  -27.5770   38.8190 C   0  0  0  0  0  0  0  0  0  0  0  0
   19.6790  -27.2070   37.7940 O   0  0  0  0  0  0  0  0  0  0  0  0
   20.9810  -29.9820   36.8160 C   0  0  0  0  0  0  0  0  0  0  0  0
   20.6190  -31.0420   35.9830 C   0  0  0  0  0  0  0  0  0  0  0  0
   19.8630  -32.1230   36.4730 C   0  0  0  0  0  0  0  0  0  0  0  0
   19.4930  -33.2610   35.5540 C   0  0  0  0  0  0  0  0  0  0  0  0
   18.2090  -33.6980   35.7110 F   0  0  0  0  0  0  0  0  0  0  0  0
   19.5800  -32.9150   34.2300 F   0  0  0  0  0  0  0  0  0  0  0  0
   20.2960  -34.3560   35.6780 F   0  0  0  0  0  0  0  0  0  0  0  0
   18.6797  -35.4475   40.3857 H   0  0  0  0  0  0  0  0  0  0  0  0
   17.6304  -35.3326   38.9323 H   0  0  0  0  0  0  0  0  0  0  0  0
   19.0469  -36.4373   38.9323 H   0  0  0  0  0  0  0  0  0  0  0  0
   20.2338  -34.0170   39.5284 H   0  0  0  0  0  0  0  0  0  0  0  0
   20.1000  -34.7201   37.8741 H   0  0  0  0  0  0  0  0  0  0  0  0
   18.1249  -32.9331   40.3296 H   0  0  0  0  0  0  0  0  0  0  0  0
   17.5507  -31.6696   39.1893 H   0  0  0  0  0  0  0  0  0  0  0  0
   16.7849  -33.2945   39.1893 H   0  0  0  0  0  0  0  0  0  0  0  0
   19.5217  -31.0415   39.6999 H   0  0  0  0  0  0  0  0  0  0  0  0
   23.3814  -29.6924   42.0626 H   0  0  0  0  0  0  0  0  0  0  0  0
   24.2088  -28.0269   43.7281 H   0  0  0  0  0  0  0  0  0  0  0  0
   23.5216  -25.6317   43.5484 H   0  0  0  0  0  0  0  0  0  0  0  0
   21.4170  -24.3150   41.0660 H   0  0  0  0  0  0  0  0  0  0  0  0
   19.6850  -26.3270   37.4770 H   0  0  0  0  0  0  0  0  0  0  0  0
   21.5686  -29.1457   36.4093 H   0  0  0  0  0  0  0  0  0  0  0  0
   20.9293  -31.0321   34.9277 H   0  0  0  0  0  0  0  0  0  0  0  0
  1  2  1  0
  2  3  1  0
  3  4  1  0
  3  5  1  0
  5  6  2  0
  6  7  1  0
  7  8  1  0
  8  9  1  0
  9 10  1  0
 10 11  2  0
 11 12  1  0
 12 13  2  0
 13 14  1  0
 14 15  1  0
 14 16  2  0
 16 17  1  0
 17 18  2  0
 17 19  1  0
 19 20  1  0
  7 21  2  0
 21 22  1  0
 22 23  2  0
 23 24  1  0
 24 25  1  0
 24 26  1  0
 24 27  1  0
 23  5  1  0
 19  8  2  0
 16 10  1  0
  1 28  1  0
  1 29  1  0
  1 30  1  0
  2 31  1  0
  2 32  1  0
  4 33  1  0
  4 34  1  0
  4 35  1  0
  6 36  1  0
 11 37  1  0
 12 38  1  0
 13 39  1  0
 15 40  1  0
 20 41  1  0
 21 42  1  0
 22 43  1  0
M  END
>  <meeko>  (5) 
{"is_sidechain": [false], "free_energy": -8.182, "intermolecular_energy": -11.056, "internal_energy": -0.303}

$$$$
cand_032_out
     RDKit          3D

 43 45  0  0  0  0  0  0  0  0999 V2000
   18.4920  -25.3790   38.2830 C   0  0  0  0  0  0  0  0  0  0  0  0
   19.9180  -25.6420   38.7490 C   0  0  0  0  0  0  0  0  0  0  0  0
   19.9110  -26.3830   40.0250 N   0  0  0  0  0  0  0  0  0  0  0  0
   18.5870  -26.5460   40.6400 C   0  0  0  0  0  0  0  0  0  0  0  0
   20.5880  -27.6220   39.9400 C   0  0  0  0  0  0  0  0  0  0  0  0
   20.1870  -28.6190   39.0300 C   0  0  0  0  0  0  0  0  0  0  0  0
   20.8570  -29.8480   38.9350 C   0  0  0  0  0  0  0  0  0  0  0  0
   20.4210  -30.9000   37.9930 C   0  0  0  0  0  0  0  0  0  0  0  0
   20.7680  -30.6230   36.6750 O   0  0  0  0  0  0  0  0  0  0  0  0
   20.4210  -31.5190   35.6960 C   0  0  0  0  0  0  0  0  0  0  0  0
   20.8020  -31.2090   34.3900 C   0  0  0  0  0  0  0  0  0  0  0  0
   20.4790  -32.0770   33.3450 C   0  0  0  0  0  0  0  0  0  0  0  0
   19.7760  -33.2560   33.6060 C   0  0  0  0  0  0  0  0  0  0  0  0
   19.3990  -33.5630   34.9110 C   0  0  0  0  0  0  0  0  0  0  0  0
   18.7140  -34.7330   35.0960 O   0  0  0  0  0  0  0  0  0  0  0  0
   19.7220  -32.6940   35.9550 C   0  0  0  0  0  0  0  0  0  0  0  0
   19.3450  -32.9790   37.3410 C   0  0  0  0  0  0  0  0  0  0  0  0
   18.7200  -33.9920   37.6500 O   0  0  0  0  0  0  0  0  0  0  0  0
   19.7420  -31.9970   38.3750 C   0  0  0  0  0  0  0  0  0  0  0  0
   19.3670  -32.2710   39.6790 O   0  0  0  0  0  0  0  0  0  0  0  0
   21.9390  -30.0810   39.7900 C   0  0  0  0  0  0  0  0  0  0  0  0
   22.3490  -29.1060   40.7000 C   0  0  0  0  0  0  0  0  0  0  0  0
   21.6830  -27.8700   40.7860 C   0  0  0  0  0  0  0  0  0  0  0  0
   22.1530  -26.8290   41.7740 C   0  0  0  0  0  0  0  0  0  0  0  0
   23.3200  -27.1550   42.4010 F   0  0  0  0  0  0  0  0  0  0  0  0
   22.4050  -25.6200   41.1810 F   0  0  0  0  0  0  0  0  0  0  0  0
   21.2470  -26.5510   42.7540 F   0  0  0  0  0  0  0  0  0  0  0  0
   17.8367  -25.2581   39.1582 H   0  0  0  0  0  0  0  0  0  0  0  0
   18.4676  -24.4612   37.6771 H   0  0  0  0  0  0  0  0  0  0  0  0
   18.1418  -26.2277   37.6771 H   0  0  0  0  0  0  0  0  0  0  0  0
   20.4450  -26.2356   37.9875 H   0  0  0  0  0  0  0  0  0  0  0  0
   20.4295  -24.6795   38.8968 H   0  0  0  0  0  0  0  0  0  0  0  0
   18.6875  -26.5336   41.7353 H   0  0  0  0  0  0  0  0  0  0  0  0
   17.9313  -25.7218   40.3226 H   0  0  0  0  0  0  0  0  0  0  0  0
   18.1508  -27.5046   40.3226 H   0  0  0  0  0  0  0  0  0  0  0  0
   19.3239  -28.4288   38.3750 H   0  0  0  0  0  0  0  0  0  0  0  0
   21.3564  -30.2816   34.1838 H   0  0  0  0  0  0  0  0  0  0  0  0
   20.7783  -31.8323   32.3152 H   0  0  0  0  0  0  0  0  0  0  0  0
   19.5210  -33.9398   32.7829 H   0  0  0  0  0  0  0  0  0  0  0  0
   17.9760  -34.9350   34.5540 H   0  0  0  0  0  0  0  0  0  0  0  0
   19.0810  -33.1300   39.9130 H   0  0  0  0  0  0  0  0  0  0  0  0
   22.4719  -31.0422   39.7446 H   0  0  0  0  0  0  0  0  0  0  0  0
   23.2058  -29.3069   41.3600 H   0  0  0  0  0  0  0  0  0  0  0  0
  1  2  1  0
  2  3  1  0
  3  4  1  0
  3  5  1  0
  5  6  2  0
  6  7  1  0
  7  8  1  0
  8  9  1  0
  9 10  1  0
 10 11  2  0
 11 12  1  0
 12 13  2  0
 13 14  1  0
 14 15  1  0
 14 16  2  0
 16 17  1  0
 17 18  2  0
 17 19  1  0
 19 20  1  0
  7 21  2  0
 21 22  1  0
 22 23  2  0
 23 24  1  0
 24 25  1  0
 24 26  1  0
 24 27  1  0
 23  5  1  0
 19  8  2  0
 16 10  1  0
  1 28  1  0
  1 29  1  0
  1 30  1  0
  2 31  1  0
  2 32  1  0
  4 33  1  0
  4 34  1  0
  4 35  1  0
  6 36  1  0
 11 37  1  0
 12 38  1  0
 13 39  1  0
 15 40  1  0
 20 41  1  0
 21 42  1  0
 22 43  1  0
M  END
>  <meeko>  (6) 
{"is_sidechain": [false], "free_energy": -8.18, "intermolecular_energy": -10.671, "internal_energy": -0.686}

$$$$
cand_032_out
     RDKit          3D

 43 45  0  0  0  0  0  0  0  0999 V2000
   21.8810  -23.8350   42.4770 C   0  0  0  0  0  0  0  0  0  0  0  0
   22.8650  -24.9850   42.6470 C   0  0  0  0  0  0  0  0  0  0  0  0
   22.1500  -26.2190   43.0240 N   0  0  0  0  0  0  0  0  0  0  0  0
   20.7220  -26.0430   43.3210 C   0  0  0  0  0  0  0  0  0  0  0  0
   22.3510  -27.2700   42.1000 C   0  0  0  0  0  0  0  0  0  0  0  0
   21.7570  -27.2500   40.8220 C   0  0  0  0  0  0  0  0  0  0  0  0
   21.9570  -28.2850   39.8960 C   0  0  0  0  0  0  0  0  0  0  0  0
   21.3170  -28.2710   38.5650 C   0  0  0  0  0  0  0  0  0  0  0  0
   21.3260  -29.5160   37.9470 O   0  0  0  0  0  0  0  0  0  0  0  0
   20.7640  -29.6440   36.7010 C   0  0  0  0  0  0  0  0  0  0  0  0
   20.7830  -30.9140   36.1260 C   0  0  0  0  0  0  0  0  0  0  0  0
   20.2290  -31.1130   34.8590 C   0  0  0  0  0  0  0  0  0  0  0  0
   19.6570  -30.0420   34.1690 C   0  0  0  0  0  0  0  0  0  0  0  0
   19.6390  -28.7750   34.7480 C   0  0  0  0  0  0  0  0  0  0  0  0
   19.0630  -27.7720   34.0180 O   0  0  0  0  0  0  0  0  0  0  0  0
   20.1930  -28.5770   36.0140 C   0  0  0  0  0  0  0  0  0  0  0  0
   20.1960  -27.2630   36.6580 C   0  0  0  0  0  0  0  0  0  0  0  0
   19.7170  -26.2700   36.1130 O   0  0  0  0  0  0  0  0  0  0  0  0
   20.8010  -27.1600   38.0060 C   0  0  0  0  0  0  0  0  0  0  0  0
   20.8100  -25.9110   38.5980 O   0  0  0  0  0  0  0  0  0  0  0  0
   22.7520  -29.3710   40.2760 C   0  0  0  0  0  0  0  0  0  0  0  0
   23.3460  -29.4100   41.5390 C   0  0  0  0  0  0  0  0  0  0  0  0
   23.1550  -28.3650   42.4620 C   0  0  0  0  0  0  0  0  0  0  0  0
   23.8150  -28.4290   43.8180 C   0  0  0  0  0  0  0  0  0  0  0  0
   22.9320  -28.4930   44.8560 F   0  0  0  0  0  0  0  0  0  0  0  0
   24.6040  -29.5400   43.9660 F   0  0  0  0  0  0  0  0  0  0  0  0
   24.6460  -27.3790   44.0770 F   0  0  0  0  0  0  0  0  0  0  0  0
   21.5689  -23.4702   43.4667 H   0  0  0  0  0  0  0  0  0  0  0  0
   22.3642  -23.0182   41.9208 H   0  0  0  0  0  0  0  0  0  0  0  0
   20.9993  -24.1860   41.9208 H   0  0  0  0  0  0  0  0  0  0  0  0
   23.3980  -25.1497   41.6990 H   0  0  0  0  0  0  0  0  0  0  0  0
   23.5807  -24.7290   43.4421 H   0  0  0  0  0  0  0  0  0  0  0  0
   20.5737  -26.0247   44.4108 H   0  0  0  0  0  0  0  0  0  0  0  0
   20.3714  -25.0948   42.8873 H   0  0  0  0  0  0  0  0  0  0  0  0
   20.1517  -26.8776   42.8873 H   0  0  0  0  0  0  0  0  0  0  0  0
   21.1186  -26.3989   40.5426 H   0  0  0  0  0  0  0  0  0  0  0  0
   21.2335  -31.7579   36.6690 H   0  0  0  0  0  0  0  0  0  0  0  0
   20.2434  -32.1145   34.4043 H   0  0  0  0  0  0  0  0  0  0  0  0
   19.2218  -30.1984   33.1709 H   0  0  0  0  0  0  0  0  0  0  0  0
   18.5900  -27.0880   34.4510 H   0  0  0  0  0  0  0  0  0  0  0  0
   20.0270  -25.5690   38.9810 H   0  0  0  0  0  0  0  0  0  0  0  0
   22.9108  -30.2023   39.5733 H   0  0  0  0  0  0  0  0  0  0  0  0
   23.9726  -30.2704   41.8167 H   0  0  0  0  0  0  0  0  0  0  0  0
  1  2  1  0
  2  3  1  0
  3  4  1  0
  3  5  1  0
  5  6  2  0
  6  7  1  0
  7  8  1  0
  8  9  1  0
  9 10  1  0
 10 11  2  0
 11 12  1  0
 12 13  2  0
 13 14  1  0
 14 15  1  0
 14 16  2  0
 16 17  1  0
 17 18  2  0
 17 19  1  0
 19 20  1  0
  7 21  2  0
 21 22  1  0
 22 23  2  0
 23 24  1  0
 24 25  1  0
 24 26  1  0
 24 27  1  0
 23  5  1  0
 19  8  2  0
 16 10  1  0
  1 28  1  0
  1 29  1  0
  1 30  1  0
  2 31  1  0
  2 32  1  0
  4 33  1  0
  4 34  1  0
  4 35  1  0
  6 36  1  0
 11 37  1  0
 12 38  1  0
 13 39  1  0
 15 40  1  0
 20 41  1  0
 21 42  1  0
 22 43  1  0
M  END
>  <meeko>  (7) 
{"is_sidechain": [false], "free_energy": -8.088, "intermolecular_energy": -11.063, "internal_energy": -0.174}

$$$$
cand_032_out
     RDKit          3D

 43 45  0  0  0  0  0  0  0  0999 V2000
   21.5980  -23.4670   42.7250 C   0  0  0  0  0  0  0  0  0  0  0  0
   22.4440  -24.6800   42.3630 C   0  0  0  0  0  0  0  0  0  0  0  0
   21.8160  -25.9140   42.8750 N   0  0  0  0  0  0  0  0  0  0  0  0
   20.3640  -25.8290   43.0850 C   0  0  0  0  0  0  0  0  0  0  0  0
   22.1540  -27.0550   42.1110 C   0  0  0  0  0  0  0  0  0  0  0  0
   21.5760  -27.2920   40.8480 C   0  0  0  0  0  0  0  0  0  0  0  0
   21.9100  -28.4190   40.0810 C   0  0  0  0  0  0  0  0  0  0  0  0
   21.2880  -28.6750   38.7660 C   0  0  0  0  0  0  0  0  0  0  0  0
   20.6450  -27.5580   38.2440 O   0  0  0  0  0  0  0  0  0  0  0  0
   20.0230  -27.6590   37.0260 C   0  0  0  0  0  0  0  0  0  0  0  0
   19.4040  -26.5090   36.5340 C   0  0  0  0  0  0  0  0  0  0  0  0
   18.7500  -26.5440   35.3000 C   0  0  0  0  0  0  0  0  0  0  0  0
   18.7170  -27.7260   34.5580 C   0  0  0  0  0  0  0  0  0  0  0  0
   19.3370  -28.8720   35.0520 C   0  0  0  0  0  0  0  0  0  0  0  0
   19.2660  -29.9950   34.2740 O   0  0  0  0  0  0  0  0  0  0  0  0
   19.9900  -28.8370   36.2860 C   0  0  0  0  0  0  0  0  0  0  0  0
   20.6540  -30.0170   36.8410 C   0  0  0  0  0  0  0  0  0  0  0  0
   20.6630  -31.0970   36.2520 O   0  0  0  0  0  0  0  0  0  0  0  0
   21.3250  -29.8730   38.1530 C   0  0  0  0  0  0  0  0  0  0  0  0
   21.9370  -30.9990   38.6740 O   0  0  0  0  0  0  0  0  0  0  0  0
   22.8270  -29.3320   40.6090 C   0  0  0  0  0  0  0  0  0  0  0  0
   23.4070  -29.1160   41.8600 C   0  0  0  0  0  0  0  0  0  0  0  0
   23.0800  -27.9800   42.6230 C   0  0  0  0  0  0  0  0  0  0  0  0
   23.7280  -27.7650   43.9700 C   0  0  0  0  0  0  0  0  0  0  0  0
   22.8370  -27.6710   44.9990 F   0  0  0  0  0  0  0  0  0  0  0  0
   24.5560  -28.7980   44.3240 F   0  0  0  0  0  0  0  0  0  0  0  0
   24.5150  -26.6540   44.0330 F   0  0  0  0  0  0  0  0  0  0  0  0
   21.5353  -23.3771   43.8195 H   0  0  0  0  0  0  0  0  0  0  0  0
   22.0604  -22.5600   42.3085 H   0  0  0  0  0  0  0  0  0  0  0  0
   20.5871  -23.5875   42.3085 H   0  0  0  0  0  0  0  0  0  0  0  0
   22.5343  -24.7459   41.2687 H   0  0  0  0  0  0  0  0  0  0  0  0
   23.4397  -24.5702   42.8174 H   0  0  0  0  0  0  0  0  0  0  0  0
   20.1497  -25.8165   44.1638 H   0  0  0  0  0  0  0  0  0  0  0  0
   19.9802  -24.9069   42.6242 H   0  0  0  0  0  0  0  0  0  0  0  0
   19.8753  -26.7001   42.6242 H   0  0  0  0  0  0  0  0  0  0  0  0
   20.8427  -26.5739   40.4522 H   0  0  0  0  0  0  0  0  0  0  0  0
   19.4310  -25.5765   37.1169 H   0  0  0  0  0  0  0  0  0  0  0  0
   18.2602  -25.6386   34.9124 H   0  0  0  0  0  0  0  0  0  0  0  0
   18.2029  -27.7527   33.5859 H   0  0  0  0  0  0  0  0  0  0  0  0
   18.4920  -30.5230   34.2820 H   0  0  0  0  0  0  0  0  0  0  0  0
   21.6080  -31.3900   39.4580 H   0  0  0  0  0  0  0  0  0  0  0  0
   23.0944  -30.2300   40.0327 H   0  0  0  0  0  0  0  0  0  0  0  0
   24.1303  -29.8445   42.2552 H   0  0  0  0  0  0  0  0  0  0  0  0
  1  2  1  0
  2  3  1  0
  3  4  1  0
  3  5  1  0
  5  6  2  0
  6  7  1  0
  7  8  1  0
  8  9  1  0
  9 10  1  0
 10 11  2  0
 11 12  1  0
 12 13  2  0
 13 14  1  0
 14 15  1  0
 14 16  2  0
 16 17  1  0
 17 18  2  0
 17 19  1  0
 19 20  1  0
  7 21  2  0
 21 22  1  0
 22 23  2  0
 23 24  1  0
 24 25  1  0
 24 26  1  0
 24 27  1  0
 23  5  1  0
 19  8  2  0
 16 10  1  0
  1 28  1  0
  1 29  1  0
  1 30  1  0
  2 31  1  0
  2 32  1  0
  4 33  1  0
  4 34  1  0
  4 35  1  0
  6 36  1  0
 11 37  1  0
 12 38  1  0
 13 39  1  0
 15 40  1  0
 20 41  1  0
 21 42  1  0
 22 43  1  0
M  END
>  <meeko>  (8) 
{"is_sidechain": [false], "free_energy": -7.98, "intermolecular_energy": -11.013, "internal_energy": -0.085}

$$$$
cand_032_out
     RDKit          3D

 43 45  0  0  0  0  0  0  0  0999 V2000
   19.2150  -22.8160   38.6270 C   0  0  0  0  0  0  0  0  0  0  0  0
   19.5690  -24.2970   38.6490 C   0  0  0  0  0  0  0  0  0  0  0  0
   19.4950  -24.8210   40.0270 N   0  0  0  0  0  0  0  0  0  0  0  0
   18.1370  -24.9340   40.5750 C   0  0  0  0  0  0  0  0  0  0  0  0
   20.2120  -26.0290   40.1900 C   0  0  0  0  0  0  0  0  0  0  0  0
   19.9240  -27.1660   39.4100 C   0  0  0  0  0  0  0  0  0  0  0  0
   20.6340  -28.3670   39.5610 C   0  0  0  0  0  0  0  0  0  0  0  0
   20.3160  -29.5640   38.7550 C   0  0  0  0  0  0  0  0  0  0  0  0
   19.6570  -30.5470   39.4850 O   0  0  0  0  0  0  0  0  0  0  0  0
   19.3030  -31.7150   38.8570 C   0  0  0  0  0  0  0  0  0  0  0  0
   18.6300  -32.6670   39.6230 C   0  0  0  0  0  0  0  0  0  0  0  0
   18.2440  -33.8780   39.0460 C   0  0  0  0  0  0  0  0  0  0  0  0
   18.5290  -34.1370   37.7030 C   0  0  0  0  0  0  0  0  0  0  0  0
   19.2000  -33.1840   36.9410 C   0  0  0  0  0  0  0  0  0  0  0  0
   19.4480  -33.5020   35.6340 O   0  0  0  0  0  0  0  0  0  0  0  0
   19.5870  -31.9720   37.5190 C   0  0  0  0  0  0  0  0  0  0  0  0
   20.2940  -30.9440   36.7540 C   0  0  0  0  0  0  0  0  0  0  0  0
   20.5870  -31.0990   35.5700 O   0  0  0  0  0  0  0  0  0  0  0  0
   20.6530  -29.6910   37.4580 C   0  0  0  0  0  0  0  0  0  0  0  0
   21.3320  -28.7330   36.7290 O   0  0  0  0  0  0  0  0  0  0  0  0
   21.6390  -28.4260   40.5310 C   0  0  0  0  0  0  0  0  0  0  0  0
   21.9360  -27.3100   41.3160 C   0  0  0  0  0  0  0  0  0  0  0  0
   21.2310  -26.1030   41.1550 C   0  0  0  0  0  0  0  0  0  0  0  0
   21.5780  -24.9090   42.0110 C   0  0  0  0  0  0  0  0  0  0  0  0
   21.1560  -25.0190   43.3040 F   0  0  0  0  0  0  0  0  0  0  0  0
   22.9310  -24.7070   42.1050 F   0  0  0  0  0  0  0  0  0  0  0  0
   21.0850  -23.7290   41.5380 F   0  0  0  0  0  0  0  0  0  0  0  0
   19.1263  -22.4448   39.6587 H   0  0  0  0  0  0  0  0  0  0  0  0
   20.0050  -22.2579   38.1032 H   0  0  0  0  0  0  0  0  0  0  0  0
   18.2580  -22.6755   38.1032 H   0  0  0  0  0  0  0  0  0  0  0  0
   18.8615  -24.8487   38.0125 H   0  0  0  0  0  0  0  0  0  0  0  0
   20.5943  -24.4255   38.2719 H   0  0  0  0  0  0  0  0  0  0  0  0
   18.1836  -24.9301   41.6740 H   0  0  0  0  0  0  0  0  0  0  0  0
   17.5307  -24.0832   40.2307 H   0  0  0  0  0  0  0  0  0  0  0  0
   17.6797  -25.8733   40.2307 H   0  0  0  0  0  0  0  0  0  0  0  0
   19.1199  -27.1110   38.6614 H   0  0  0  0  0  0  0  0  0  0  0  0
   18.4038  -32.4637   40.6801 H   0  0  0  0  0  0  0  0  0  0  0  0
   17.7145  -34.6297   39.6498 H   0  0  0  0  0  0  0  0  0  0  0  0
   18.2241  -35.0913   37.2487 H   0  0  0  0  0  0  0  0  0  0  0  0
   18.8470  -34.0440   35.1610 H   0  0  0  0  0  0  0  0  0  0  0  0
   21.1900  -27.8240   36.9030 H   0  0  0  0  0  0  0  0  0  0  0  0
   22.2010  -29.3602   40.6772 H   0  0  0  0  0  0  0  0  0  0  0  0
   22.7329  -27.3754   42.0714 H   0  0  0  0  0  0  0  0  0  0  0  0
  1  2  1  0
  2  3  1  0
  3  4  1  0
  3  5  1  0
  5  6  2  0
  6  7  1  0
  7  8  1  0
  8  9  1  0
  9 10  1  0
 10 11  2  0
 11 12  1  0
 12 13  2  0
 13 14  1  0
 14 15  1  0
 14 16  2  0
 16 17  1  0
 17 18  2  0
 17 19  1  0
 19 20  1  0
  7 21  2  0
 21 22  1  0
 22 23  2  0
 23 24  1  0
 24 25  1  0
 24 26  1  0
 24 27  1  0
 23  5  1  0
 19  8  2  0
 16 10  1  0
  1 28  1  0
  1 29  1  0
  1 30  1  0
  2 31  1  0
  2 32  1  0
  4 33  1  0
  4 34  1  0
  4 35  1  0
  6 36  1  0
 11 37  1  0
 12 38  1  0
 13 39  1  0
 15 40  1  0
 20 41  1  0
 21 42  1  0
 22 43  1  0
M  END
>  <meeko>  (9) 
{"is_sidechain": [false], "free_energy": -7.949, "intermolecular_energy": -10.76, "internal_energy": -0.298}

$$$$
