cand_015_out
     RDKit          3D

 36 38  0  0  0  0  0  0  0  0999 V2000
   46.8720   24.7800  -13.7260 C   0  0  0  0  0  0  0  0  0  0  0  0
   45.6890   24.7550  -13.1040 C   0  0  0  0  0  0  0  0  0  0  0  0
   45.6360   24.2060  -11.8700 F   0  0  0  0  0  0  0  0  0  0  0  0
   44.4290   25.2520  -13.6830 C   0  0  0  0  0  0  0  0  0  0  0  0
   43.6700   24.4140  -14.5180 C   0  0  0  0  0  0  0  0  0  0  0  0
   42.4820   24.8600  -15.1070 C   0  0  0  0  0  0  0  0  0  0  0  0
   42.0170   26.1580  -14.8800 C   0  0  0  0  0  0  0  0  0  0  0  0
   40.7810   26.6640  -15.5140 C   0  0  0  0  0  0  0  0  0  0  0  0
   40.0270   27.4660  -14.6650 O   0  0  0  0  0  0  0  0  0  0  0  0
   38.8530   28.0020  -15.1290 C   0  0  0  0  0  0  0  0  0  0  0  0
   38.1350   28.8120  -14.2470 C   0  0  0  0  0  0  0  0  0  0  0  0
   36.9300   29.3880  -14.6560 C   0  0  0  0  0  0  0  0  0  0  0  0
   36.4430   29.1550  -15.9440 C   0  0  0  0  0  0  0  0  0  0  0  0
   37.1620   28.3470  -16.8210 C   0  0  0  0  0  0  0  0  0  0  0  0
   36.6280   28.1590  -18.0670 O   0  0  0  0  0  0  0  0  0  0  0  0
   38.3680   27.7710  -16.4120 C   0  0  0  0  0  0  0  0  0  0  0  0
   39.1540   26.9160  -17.3030 C   0  0  0  0  0  0  0  0  0  0  0  0
   38.7890   26.6570  -18.4470 O   0  0  0  0  0  0  0  0  0  0  0  0
   40.4210   26.3600  -16.7740 C   0  0  0  0  0  0  0  0  0  0  0  0
   41.1500   25.5420  -17.6200 O   0  0  0  0  0  0  0  0  0  0  0  0
   42.7800   27.0030  -14.0600 C   0  0  0  0  0  0  0  0  0  0  0  0
   43.9740   26.5670  -13.4510 C   0  0  0  0  0  0  0  0  0  0  0  0
   44.7350   27.5360  -12.5860 C   0  0  0  0  0  0  0  0  0  0  0  0
   46.9556   25.2185  -14.7314 H   0  0  0  0  0  0  0  0  0  0  0  0
   47.7618   24.3621  -13.2325 H   0  0  0  0  0  0  0  0  0  0  0  0
   44.0166   23.3882  -14.7120 H   0  0  0  0  0  0  0  0  0  0  0  0
   41.9080   24.1818  -15.7556 H   0  0  0  0  0  0  0  0  0  0  0  0
   38.5175   28.9961  -13.2322 H   0  0  0  0  0  0  0  0  0  0  0  0
   36.3635   30.0265  -13.9622 H   0  0  0  0  0  0  0  0  0  0  0  0
   35.4937   29.6087  -16.2649 H   0  0  0  0  0  0  0  0  0  0  0  0
   35.9560   27.5200  -18.1970 H   0  0  0  0  0  0  0  0  0  0  0  0
   42.0840   25.5070  -17.5470 H   0  0  0  0  0  0  0  0  0  0  0  0
   42.4370   28.0339  -13.8877 H   0  0  0  0  0  0  0  0  0  0  0  0
   44.5523   27.3034  -11.5265 H   0  0  0  0  0  0  0  0  0  0  0  0
   45.8107   27.4516  -12.7997 H   0  0  0  0  0  0  0  0  0  0  0  0
   44.3980   28.5611  -12.7997 H   0  0  0  0  0  0  0  0  0  0  0  0
  1  2  2  0
  2  3  1  0
  2  4  1  0
  4  5  2  0
  5  6  1  0
  6  7  2  0
  7  8  1  0
  8  9  1  0
  9 10  1  0
 10 11  2  0
 11 12  1  0
 12 13  2  0
 13 14  1  0
 14 15  1  0
 14 16  2  0
 16 17  1  0
 17 18  2  0
 17 19  1  0
 19 20  1  0
  7 21  1  0
 21 22  2  0
 22 23  1  0
 22  4  1  0
 19  8  2  0
 16 10  1  0
  1 24  1  0
  1 25  1  0
  5 26  1  0
  6 27  1  0
 11 28  1  0
 12 29  1  0
 13 30  1  0
 15 31  1  0
 20 32  1  0
 21 33  1  0
 23 34  1  0
 23 35  1  0
 23 36  1  0
M  END
>  <meeko>  (1) 
{"is_sidechain": [false], "free_energy": -8.315, "intermolecular_energy": -9.773, "internal_energy": -0.178}

$$$$
cand_015_out
     RDKit          3D

 36 38  0  0  0  0  0  0  0  0999 V2000
   47.0020   24.8180  -14.3640 C   0  0  0  0  0  0  0  0  0  0  0  0
   45.9760   24.7270  -13.5120 C   0  0  0  0  0  0  0  0  0  0  0  0
   46.1530   24.0000  -12.3860 F   0  0  0  0  0  0  0  0  0  0  0  0
   44.6520   25.3350  -13.7290 C   0  0  0  0  0  0  0  0  0  0  0  0
   43.7030   24.6670  -14.5240 C   0  0  0  0  0  0  0  0  0  0  0  0
   42.4450   25.2260  -14.7750 C   0  0  0  0  0  0  0  0  0  0  0  0
   42.0970   26.4680  -14.2390 C   0  0  0  0  0  0  0  0  0  0  0  0
   40.7860   27.0940  -14.5130 C   0  0  0  0  0  0  0  0  0  0  0  0
   40.3280   26.8470  -15.8020 O   0  0  0  0  0  0  0  0  0  0  0  0
   39.1210   27.3710  -16.1890 C   0  0  0  0  0  0  0  0  0  0  0  0
   38.6930   27.0850  -17.4870 C   0  0  0  0  0  0  0  0  0  0  0  0
   37.4740   27.5900  -17.9450 C   0  0  0  0  0  0  0  0  0  0  0  0
   36.6840   28.3800  -17.1070 C   0  0  0  0  0  0  0  0  0  0  0  0
   37.1140   28.6640  -15.8130 C   0  0  0  0  0  0  0  0  0  0  0  0
   36.2920   29.4440  -15.0460 O   0  0  0  0  0  0  0  0  0  0  0  0
   38.3330   28.1570  -15.3550 C   0  0  0  0  0  0  0  0  0  0  0  0
   38.8210   28.4310  -14.0020 C   0  0  0  0  0  0  0  0  0  0  0  0
   38.1880   29.1240  -13.2090 O   0  0  0  0  0  0  0  0  0  0  0  0
   40.1230   27.8420  -13.6130 C   0  0  0  0  0  0  0  0  0  0  0  0
   40.5820   28.1180  -12.3370 O   0  0  0  0  0  0  0  0  0  0  0  0
   43.0460   27.1450  -13.4590 C   0  0  0  0  0  0  0  0  0  0  0  0
   44.3150   26.5930  -13.1890 C   0  0  0  0  0  0  0  0  0  0  0  0
   45.2780   27.3840  -12.3430 C   0  0  0  0  0  0  0  0  0  0  0  0
   46.8970   25.4005  -15.2912 H   0  0  0  0  0  0  0  0  0  0  0  0
   47.9513   24.3104  -14.1379 H   0  0  0  0  0  0  0  0  0  0  0  0
   43.9544   23.6872  -14.9563 H   0  0  0  0  0  0  0  0  0  0  0  0
   41.7226   24.6816  -15.4010 H   0  0  0  0  0  0  0  0  0  0  0  0
   39.3148   26.4630  -18.1477 H   0  0  0  0  0  0  0  0  0  0  0  0
   37.1357   27.3652  -18.9672 H   0  0  0  0  0  0  0  0  0  0  0  0
   35.7239   28.7772  -17.4682 H   0  0  0  0  0  0  0  0  0  0  0  0
   36.5470   30.3180  -14.8260 H   0  0  0  0  0  0  0  0  0  0  0  0
   40.1020   27.8150  -11.5910 H   0  0  0  0  0  0  0  0  0  0  0  0
   42.7934   28.1331  -13.0469 H   0  0  0  0  0  0  0  0  0  0  0  0
   45.0623   27.2068  -11.2790 H   0  0  0  0  0  0  0  0  0  0  0  0
   46.3076   27.0674  -12.5661 H   0  0  0  0  0  0  0  0  0  0  0  0
   45.1674   28.4555  -12.5661 H   0  0  0  0  0  0  0  0  0  0  0  0
  1  2  2  0
  2  3  1  0
  2  4  1  0
  4  5  2  0
  5  6  1  0
  6  7  2  0
  7  8  1  0
  8  9  1  0
  9 10  1  0
 10 11  2  0
 11 12  1  0
 12 13  2  0
 13 14  1  0
 14 15  1  0
 14 16  2  0
 16 17  1  0
 17 18  2  0
 17 19  1  0
 19 20  1  0
  7 21  1  0
 21 22  2  0
 22 23  1  0
 22  4  1  0
 19  8  2  0
 16 10  1  0
  1 24  1  0
  1 25  1  0
  5 26  1  0
  6 27  1  0
 11 28  1  0
 12 29  1  0
 13 30  1  0
 15 31  1  0
 20 32  1  0
 21 33  1  0
 23 34  1  0
 23 35  1  0
 23 36  1  0
M  END
>  <meeko>  (2) 
{"is_sidechain": [false], "free_energy": -8.29, "intermolecular_energy": -9.79, "internal_energy": -0.131}

$$$$
cand_015_out
     RDKit          3D

 36 38  0  0  0  0  0  0  0  0999 V2000
   34.9620   29.9230  -18.1660 C   0  0  0  0  0  0  0  0  0  0  0  0
   35.7060   28.8200  -18.2970 C   0  0  0  0  0  0  0  0  0  0  0  0
   35.4360   27.9950  -19.3340 F   0  0  0  0  0  0  0  0  0  0  0  0
   36.7790   28.4190  -17.3700 C   0  0  0  0  0  0  0  0  0  0  0  0
   36.9690   29.1360  -16.1760 C   0  0  0  0  0  0  0  0  0  0  0  0
   37.9940   28.8020  -15.2840 C   0  0  0  0  0  0  0  0  0  0  0  0
   38.8610   27.7420  -15.5600 C   0  0  0  0  0  0  0  0  0  0  0  0
   39.9710   27.3870  -14.6500 C   0  0  0  0  0  0  0  0  0  0  0  0
   40.9860   26.6810  -15.2850 O   0  0  0  0  0  0  0  0  0  0  0  0
   42.0780   26.2890  -14.5550 C   0  0  0  0  0  0  0  0  0  0  0  0
   43.0800   25.5950  -15.2360 C   0  0  0  0  0  0  0  0  0  0  0  0
   44.2190   25.1650  -14.5510 C   0  0  0  0  0  0  0  0  0  0  0  0
   44.3560   25.4280  -13.1870 C   0  0  0  0  0  0  0  0  0  0  0  0
   43.3560   26.1220  -12.5100 C   0  0  0  0  0  0  0  0  0  0  0  0
   43.5540   26.3460  -11.1750 O   0  0  0  0  0  0  0  0  0  0  0  0
   42.2170   26.5520  -13.1960 C   0  0  0  0  0  0  0  0  0  0  0  0
   41.1430   27.2840  -12.5230 C   0  0  0  0  0  0  0  0  0  0  0  0
   41.1860   27.5470  -11.3230 O   0  0  0  0  0  0  0  0  0  0  0  0
   39.9810   27.7010  -13.3420 C   0  0  0  0  0  0  0  0  0  0  0  0
   38.9650   28.3800  -12.6930 O   0  0  0  0  0  0  0  0  0  0  0  0
   38.6870   27.0350  -16.7590 C   0  0  0  0  0  0  0  0  0  0  0  0
   37.6530   27.3520  -17.6640 C   0  0  0  0  0  0  0  0  0  0  0  0
   37.5330   26.5450  -18.9300 C   0  0  0  0  0  0  0  0  0  0  0  0
   35.1513   30.6186  -17.3352 H   0  0  0  0  0  0  0  0  0  0  0  0
   34.1605   30.1349  -18.8890 H   0  0  0  0  0  0  0  0  0  0  0  0
   36.2992   29.9756  -15.9384 H   0  0  0  0  0  0  0  0  0  0  0  0
   38.1183   29.3798  -14.3563 H   0  0  0  0  0  0  0  0  0  0  0  0
   42.9726   25.3870  -16.3108 H   0  0  0  0  0  0  0  0  0  0  0  0
   45.0089   24.6185  -15.0871 H   0  0  0  0  0  0  0  0  0  0  0  0
   45.2523   25.0877  -12.6476 H   0  0  0  0  0  0  0  0  0  0  0  0
   42.8890   26.7680  -10.6670 H   0  0  0  0  0  0  0  0  0  0  0  0
   38.5760   28.0150  -11.9230 H   0  0  0  0  0  0  0  0  0  0  0  0
   39.3754   26.2115  -16.9997 H   0  0  0  0  0  0  0  0  0  0  0  0
   37.3756   25.4863  -18.6764 H   0  0  0  0  0  0  0  0  0  0  0  0
   36.6795   26.9118  -19.5191 H   0  0  0  0  0  0  0  0  0  0  0  0
   38.4563   26.6476  -19.5191 H   0  0  0  0  0  0  0  0  0  0  0  0
  1  2  2  0
  2  3  1  0
  2  4  1  0
  4  5  2  0
  5  6  1  0
  6  7  2  0
  7  8  1  0
  8  9  1  0
  9 10  1  0
 10 11  2  0
 11 12  1  0
 12 13  2  0
 13 14  1  0
 14 15  1  0
 14 16  2  0
 16 17  1  0
 17 18  2  0
 17 19  1  0
 19 20  1  0
  7 21  1  0
 21 22  2  0
 22 23  1  0
 22  4  1  0
 19  8  2  0
 16 10  1  0
  1 24  1  0
  1 25  1  0
  5 26  1  0
  6 27  1  0
 11 28  1  0
 12 29  1  0
 13 30  1  0
 15 31  1  0
 20 32  1  0
 21 33  1  0
 23 34  1  0
 23 35  1  0
 23 36  1  0
M  END
>  <meeko>  (3) 
{"is_sidechain": [false], "free_energy": -7.191, "intermolecular_energy": -9.186, "internal_energy": 0.556}

$$$$
cand_015_out
     RDKit          3D

 36 38  0  0  0  0  0  0  0  0999 V2000
   46.4010   24.0190  -13.0520 C   0  0  0  0  0  0  0  0  0  0  0  0
   45.9100   25.2630  -13.0840 C   0  0  0  0  0  0  0  0  0  0  0  0
   46.6220   26.2390  -12.4780 F   0  0  0  0  0  0  0  0  0  0  0  0
   44.6280   25.6390  -13.7040 C   0  0  0  0  0  0  0  0  0  0  0  0
   44.1260   24.8820  -14.7770 C   0  0  0  0  0  0  0  0  0  0  0  0
   42.9250   25.2260  -15.4080 C   0  0  0  0  0  0  0  0  0  0  0  0
   42.1900   26.3360  -14.9860 C   0  0  0  0  0  0  0  0  0  0  0  0
   40.9340   26.7380  -15.6550 C   0  0  0  0  0  0  0  0  0  0  0  0
   40.1360   27.5530  -14.8610 O   0  0  0  0  0  0  0  0  0  0  0  0
   38.9400   28.0000  -15.3610 C   0  0  0  0  0  0  0  0  0  0  0  0
   38.1770   28.8280  -14.5350 C   0  0  0  0  0  0  0  0  0  0  0  0
   36.9470   29.3150  -14.9830 C   0  0  0  0  0  0  0  0  0  0  0  0
   36.4800   28.9760  -16.2550 C   0  0  0  0  0  0  0  0  0  0  0  0
   37.2430   28.1500  -17.0760 C   0  0  0  0  0  0  0  0  0  0  0  0
   36.7270   27.8570  -18.3090 O   0  0  0  0  0  0  0  0  0  0  0  0
   38.4740   27.6630  -16.6280 C   0  0  0  0  0  0  0  0  0  0  0  0
   39.3070   26.7930  -17.4600 C   0  0  0  0  0  0  0  0  0  0  0  0
   38.9620   26.4430  -18.5870 O   0  0  0  0  0  0  0  0  0  0  0  0
   40.5970   26.3360  -16.8940 C   0  0  0  0  0  0  0  0  0  0  0  0
   41.3710   25.5040  -17.6830 O   0  0  0  0  0  0  0  0  0  0  0  0
   42.6960   27.1040  -13.9270 C   0  0  0  0  0  0  0  0  0  0  0  0
   43.8980   26.7670  -13.2730 C   0  0  0  0  0  0  0  0  0  0  0  0
   44.3740   27.6430  -12.1450 C   0  0  0  0  0  0  0  0  0  0  0  0
   45.8503   23.1978  -13.5340 H   0  0  0  0  0  0  0  0  0  0  0  0
   47.3554   23.8173  -12.5436 H   0  0  0  0  0  0  0  0  0  0  0  0
   44.6874   24.0032  -15.1271 H   0  0  0  0  0  0  0  0  0  0  0  0
   42.5560   24.6155  -16.2453 H   0  0  0  0  0  0  0  0  0  0  0  0
   38.5440   29.0962  -13.5333 H   0  0  0  0  0  0  0  0  0  0  0  0
   36.3449   29.9668  -14.3329 H   0  0  0  0  0  0  0  0  0  0  0  0
   35.5116   29.3608  -16.6073 H   0  0  0  0  0  0  0  0  0  0  0  0
   37.3010   27.7100  -19.0340 H   0  0  0  0  0  0  0  0  0  0  0  0
   41.3320   25.5740  -18.6170 H   0  0  0  0  0  0  0  0  0  0  0  0
   42.1393   27.9938  -13.5979 H   0  0  0  0  0  0  0  0  0  0  0  0
   44.1189   27.1736  -11.1835 H   0  0  0  0  0  0  0  0  0  0  0  0
   45.4646   27.7689  -12.2137 H   0  0  0  0  0  0  0  0  0  0  0  0
   43.8863   28.6266  -12.2137 H   0  0  0  0  0  0  0  0  0  0  0  0
  1  2  2  0
  2  3  1  0
  2  4  1  0
  4  5  2  0
  5  6  1  0
  6  7  2  0
  7  8  1  0
  8  9  1  0
  9 10  1  0
 10 11  2  0
 11 12  1  0
 12 13  2  0
 13 14  1  0
 14 15  1  0
 14 16  2  0
 16 17  1  0
 17 18  2  0
 17 19  1  0
 19 20  1  0
  7 21  1  0
 21 22  2  0
 22 23  1  0
 22  4  1  0
 19  8  2  0
 16 10  1  0
  1 24  1  0
  1 25  1  0
  5 26  1  0
  6 27  1  0
 11 28  1  0
 12 29  1  0
 13 30  1  0
 15 31  1  0
 20 32  1  0
 21 33  1  0
 23 34  1  0
 23 35  1  0
 23 36  1  0
M  END
>  <meeko>  (4) 
{"is_sidechain": [false], "free_energy": -5.618, "intermolecular_energy": -7.256, "internal_energy": 0.474}

$$$$
cand_015_out
     RDKit          3D

 36 38  0  0  0  0  0  0  0  0999 V2000
   47.3230   24.9630  -14.1120 C   0  0  0  0  0  0  0  0  0  0  0  0
   46.2600   24.9110  -13.3020 C   0  0  0  0  0  0  0  0  0  0  0  0
   46.4020   24.2820  -12.1140 F   0  0  0  0  0  0  0  0  0  0  0  0
   44.9320   25.4590  -13.6280 C   0  0  0  0  0  0  0  0  0  0  0  0
   44.7250   26.8490  -13.5850 C   0  0  0  0  0  0  0  0  0  0  0  0
   43.4710   27.4050  -13.8620 C   0  0  0  0  0  0  0  0  0  0  0  0
   42.3860   26.5880  -14.1900 C   0  0  0  0  0  0  0  0  0  0  0  0
   41.0440   27.1470  -14.4570 C   0  0  0  0  0  0  0  0  0  0  0  0
   40.5740   26.8420  -15.7290 O   0  0  0  0  0  0  0  0  0  0  0  0
   39.3380   27.3010  -16.1070 C   0  0  0  0  0  0  0  0  0  0  0  0
   38.9010   26.9590  -17.3880 C   0  0  0  0  0  0  0  0  0  0  0  0
   37.6520   27.3950  -17.8370 C   0  0  0  0  0  0  0  0  0  0  0  0
   36.8420   28.1730  -17.0060 C   0  0  0  0  0  0  0  0  0  0  0  0
   37.2810   28.5120  -15.7290 C   0  0  0  0  0  0  0  0  0  0  0  0
   36.4390   29.2750  -14.9680 O   0  0  0  0  0  0  0  0  0  0  0  0
   38.5310   28.0740  -15.2800 C   0  0  0  0  0  0  0  0  0  0  0  0
   39.0300   28.4080  -13.9450 C   0  0  0  0  0  0  0  0  0  0  0  0
   38.3800   29.0940  -13.1590 O   0  0  0  0  0  0  0  0  0  0  0  0
   40.3640   27.8890  -13.5650 C   0  0  0  0  0  0  0  0  0  0  0  0
   40.8320   28.2220  -12.3060 O   0  0  0  0  0  0  0  0  0  0  0  0
   42.5840   25.1990  -14.2170 C   0  0  0  0  0  0  0  0  0  0  0  0
   43.8420   24.6230  -13.9500 C   0  0  0  0  0  0  0  0  0  0  0  0
   43.9720   23.1240  -13.9990 C   0  0  0  0  0  0  0  0  0  0  0  0
   47.2472   25.4661  -15.0873 H   0  0  0  0  0  0  0  0  0  0  0  0
   48.2730   24.5027  -13.8029 H   0  0  0  0  0  0  0  0  0  0  0  0
   45.5646   27.5119  -13.3288 H   0  0  0  0  0  0  0  0  0  0  0  0
   43.3382   28.4962  -13.8211 H   0  0  0  0  0  0  0  0  0  0  0  0
   39.5390   26.3472  -18.0427 H   0  0  0  0  0  0  0  0  0  0  0  0
   37.3060   27.1255  -18.8458 H   0  0  0  0  0  0  0  0  0  0  0  0
   35.8590   28.5171  -17.3601 H   0  0  0  0  0  0  0  0  0  0  0  0
   36.3140   29.0740  -14.0620 H   0  0  0  0  0  0  0  0  0  0  0  0
   40.6080   29.0490  -11.9260 H   0  0  0  0  0  0  0  0  0  0  0  0
   41.7340   24.5419  -14.4530 H   0  0  0  0  0  0  0  0  0  0  0  0
   44.0066   22.7253  -12.9744 H   0  0  0  0  0  0  0  0  0  0  0  0
   43.1074   22.6981  -14.5292 H   0  0  0  0  0  0  0  0  0  0  0  0
   44.8970   22.8533  -14.5292 H   0  0  0  0  0  0  0  0  0  0  0  0
  1  2  2  0
  2  3  1  0
  2  4  1  0
  4  5  2  0
  5  6  1  0
  6  7  2  0
  7  8  1  0
  8  9  1  0
  9 10  1  0
 10 11  2  0
 11 12  1  0
 12 13  2  0
 13 14  1  0
 14 15  1  0
 14 16  2  0
 16 17  1  0
 17 18  2  0
 17 19  1  0
 19 20  1  0
  7 21  1  0
 21 22  2  0
 22 23  1  0
 22  4  1  0
 19  8  2  0
 16 10  1  0
  1 24  1  0
  1 25  1  0
  5 26  1  0
  6 27  1  0
 11 28  1  0
 12 29  1  0
 13 30  1  0
 15 31  1  0
 20 32  1  0
 21 33  1  0
 23 34  1  0
 23 35  1  0
 23 36  1  0
M  END
>  <meeko>  (5) 
{"is_sidechain": [false], "free_energy": -5.442, "intermolecular_energy": -6.164, "internal_energy": -0.41}

$$$$
