cand_016_out
     RDKit          3D

 35 37  0  0  0  0  0  0  0  0999 V2000
   45.5870   27.1840  -12.7310 C   0  0  0  0  0  0  0  0  0  0  0  0
   44.4910   26.4220  -13.4260 C   0  0  0  0  0  0  0  0  0  0  0  0
   43.2460   27.0480  -13.6200 C   0  0  0  0  0  0  0  0  0  0  0  0
   42.1880   26.3950  -14.2690 C   0  0  0  0  0  0  0  0  0  0  0  0
   40.8850   27.0580  -14.4930 C   0  0  0  0  0  0  0  0  0  0  0  0
   40.3750   26.8320  -15.7660 O   0  0  0  0  0  0  0  0  0  0  0  0
   39.1700   27.3900  -16.1060 C   0  0  0  0  0  0  0  0  0  0  0  0
   38.7030   27.1510  -17.3990 C   0  0  0  0  0  0  0  0  0  0  0  0
   37.4810   27.6890  -17.8090 C   0  0  0  0  0  0  0  0  0  0  0  0
   36.7270   28.4660  -16.9270 C   0  0  0  0  0  0  0  0  0  0  0  0
   37.1950   28.7030  -15.6380 C   0  0  0  0  0  0  0  0  0  0  0  0
   36.4070   29.4710  -14.8260 O   0  0  0  0  0  0  0  0  0  0  0  0
   38.4180   28.1650  -15.2280 C   0  0  0  0  0  0  0  0  0  0  0  0
   38.9460   28.3900  -13.8810 C   0  0  0  0  0  0  0  0  0  0  0  0
   38.3390   29.0560  -13.0460 O   0  0  0  0  0  0  0  0  0  0  0  0
   40.2560   27.7830  -13.5490 C   0  0  0  0  0  0  0  0  0  0  0  0
   40.7400   27.9900  -12.2710 O   0  0  0  0  0  0  0  0  0  0  0  0
   42.4010   25.0990  -14.7490 C   0  0  0  0  0  0  0  0  0  0  0  0
   43.6340   24.4660  -14.5730 C   0  0  0  0  0  0  0  0  0  0  0  0
   44.6940   25.1160  -13.9190 C   0  0  0  0  0  0  0  0  0  0  0  0
   46.0070   24.3910  -13.7360 C   0  0  0  0  0  0  0  0  0  0  0  0
   47.0270   24.9180  -14.4740 F   0  0  0  0  0  0  0  0  0  0  0  0
   46.4500   24.4020  -12.4480 F   0  0  0  0  0  0  0  0  0  0  0  0
   45.4608   27.0963  -11.6418 H   0  0  0  0  0  0  0  0  0  0  0  0
   46.5634   26.7689  -13.0216 H   0  0  0  0  0  0  0  0  0  0  0  0
   45.5379   28.2438  -13.0216 H   0  0  0  0  0  0  0  0  0  0  0  0
   43.0988   28.0747  -13.2537 H   0  0  0  0  0  0  0  0  0  0  0  0
   39.2966   26.5396  -18.0946 H   0  0  0  0  0  0  0  0  0  0  0  0
   37.1120   27.5004  -18.8280 H   0  0  0  0  0  0  0  0  0  0  0  0
   35.7649   28.8899  -17.2505 H   0  0  0  0  0  0  0  0  0  0  0  0
   35.5760   29.7790  -15.1330 H   0  0  0  0  0  0  0  0  0  0  0  0
   40.2630   27.6670  -11.5310 H   0  0  0  0  0  0  0  0  0  0  0  0
   41.5887   24.5720  -15.2710 H   0  0  0  0  0  0  0  0  0  0  0  0
   43.7770   23.4434  -14.9522 H   0  0  0  0  0  0  0  0  0  0  0  0
   45.7690   23.3695  -14.0676 H   0  0  0  0  0  0  0  0  0  0  0  0
  1  2  1  0
  2  3  2  0
  3  4  1  0
  4  5  1  0
  5  6  1  0
  6  7  1  0
  7  8  2  0
  8  9  1  0
  9 10  2  0
 10 11  1  0
 11 12  1  0
 11 13  2  0
 13 14  1  0
 14 15  2  0
 14 16  1  0
 16 17  1  0
  4 18  2  0
 18 19  1  0
 19 20  2  0
 20 21  1  0
 21 22  1  0
 21 23  1  0
 20  2  1  0
 16  5  2  0
 13  7  1  0
  1 24  1  0
  1 25  1  0
  1 26  1  0
  3 27  1  0
  8 28  1  0
  9 29  1  0
 10 30  1  0
 12 31  1  0
 17 32  1  0
 18 33  1  0
 19 34  1  0
 21 35  1  0
M  END
>  <meeko>  (1) 
{"is_sidechain": [false], "free_energy": -8.677, "intermolecular_energy": -10.199, "internal_energy": -0.003}

$$$$
cand_016_out
     RDKit          3D

 35 37  0  0  0  0  0  0  0  0999 V2000
   43.5130   26.8290  -11.6770 C   0  0  0  0  0  0  0  0  0  0  0  0
   43.1900   26.3030  -13.0500 C   0  0  0  0  0  0  0  0  0  0  0  0
   42.0150   26.7420  -13.6870 C   0  0  0  0  0  0  0  0  0  0  0  0
   41.6640   26.2970  -14.9700 C   0  0  0  0  0  0  0  0  0  0  0  0
   40.4400   26.7720  -15.6500 C   0  0  0  0  0  0  0  0  0  0  0  0
   39.6640   27.6020  -14.8500 O   0  0  0  0  0  0  0  0  0  0  0  0
   38.4990   28.1150  -15.3590 C   0  0  0  0  0  0  0  0  0  0  0  0
   37.7430   28.9300  -14.5160 C   0  0  0  0  0  0  0  0  0  0  0  0
   36.5450   29.4850  -14.9740 C   0  0  0  0  0  0  0  0  0  0  0  0
   36.1050   29.2260  -16.2730 C   0  0  0  0  0  0  0  0  0  0  0  0
   36.8610   28.4120  -17.1120 C   0  0  0  0  0  0  0  0  0  0  0  0
   36.3730   28.2010  -18.3720 O   0  0  0  0  0  0  0  0  0  0  0  0
   38.0590   27.8560  -16.6540 C   0  0  0  0  0  0  0  0  0  0  0  0
   38.8840   26.9960  -17.5040 C   0  0  0  0  0  0  0  0  0  0  0  0
   38.5680   26.7270  -18.6610 O   0  0  0  0  0  0  0  0  0  0  0  0
   40.1310   26.4500  -16.9200 C   0  0  0  0  0  0  0  0  0  0  0  0
   40.9090   25.6490  -17.7350 O   0  0  0  0  0  0  0  0  0  0  0  0
   42.5260   25.4120  -15.6250 C   0  0  0  0  0  0  0  0  0  0  0  0
   43.7010   24.9730  -15.0110 C   0  0  0  0  0  0  0  0  0  0  0  0
   44.0530   25.4150  -13.7250 C   0  0  0  0  0  0  0  0  0  0  0  0
   45.3260   24.9040  -13.0890 C   0  0  0  0  0  0  0  0  0  0  0  0
   45.8370   23.8000  -13.7090 F   0  0  0  0  0  0  0  0  0  0  0  0
   46.3330   25.8210  -13.0950 F   0  0  0  0  0  0  0  0  0  0  0  0
   43.0967   26.1511  -10.9173 H   0  0  0  0  0  0  0  0  0  0  0  0
   44.6045   26.8902  -11.5552 H   0  0  0  0  0  0  0  0  0  0  0  0
   43.0738   27.8301  -11.5552 H   0  0  0  0  0  0  0  0  0  0  0  0
   41.3554   27.4516  -13.1661 H   0  0  0  0  0  0  0  0  0  0  0  0
   38.0894   29.1354  -13.4924 H   0  0  0  0  0  0  0  0  0  0  0  0
   35.9479   30.1270  -14.3097 H   0  0  0  0  0  0  0  0  0  0  0  0
   35.1626   29.6643  -16.6332 H   0  0  0  0  0  0  0  0  0  0  0  0
   35.9520   27.3900  -18.5820 H   0  0  0  0  0  0  0  0  0  0  0  0
   40.5030   25.0830  -18.3620 H   0  0  0  0  0  0  0  0  0  0  0  0
   42.2757   25.0574  -16.6357 H   0  0  0  0  0  0  0  0  0  0  0  0
   44.3604   24.2709  -15.5422 H   0  0  0  0  0  0  0  0  0  0  0  0
   45.0088   24.6674  -12.0627 H   0  0  0  0  0  0  0  0  0  0  0  0
  1  2  1  0
  2  3  2  0
  3  4  1  0
  4  5  1  0
  5  6  1  0
  6  7  1  0
  7  8  2  0
  8  9  1  0
  9 10  2  0
 10 11  1  0
 11 12  1  0
 11 13  2  0
 13 14  1  0
 14 15  2  0
 14 16  1  0
 16 17  1  0
  4 18  2  0
 18 19  1  0
 19 20  2  0
 20 21  1  0
 21 22  1  0
 21 23  1  0
 20  2  1  0
 16  5  2  0
 13  7  1  0
  1 24  1  0
  1 25  1  0
  1 26  1  0
  3 27  1  0
  8 28  1  0
  9 29  1  0
 10 30  1  0
 12 31  1  0
 17 32  1  0
 18 33  1  0
 19 34  1  0
 21 35  1  0
M  END
>  <meeko>  (2) 
{"is_sidechain": [false], "free_energy": -8.442, "intermolecular_energy": -10.132, "internal_energy": 0.206}

$$$$
cand_016_out
     RDKit          3D

 35 37  0  0  0  0  0  0  0  0999 V2000
   37.3530   26.8200  -18.6740 C   0  0  0  0  0  0  0  0  0  0  0  0
   37.6240   27.6070  -17.4200 C   0  0  0  0  0  0  0  0  0  0  0  0
   38.6520   27.1820  -16.5590 C   0  0  0  0  0  0  0  0  0  0  0  0
   38.9600   27.8780  -15.3810 C   0  0  0  0  0  0  0  0  0  0  0  0
   40.0530   27.4450  -14.4850 C   0  0  0  0  0  0  0  0  0  0  0  0
   41.0790   26.7940  -15.1600 O   0  0  0  0  0  0  0  0  0  0  0  0
   42.1580   26.3400  -14.4460 C   0  0  0  0  0  0  0  0  0  0  0  0
   43.1580   25.6780  -15.1600 C   0  0  0  0  0  0  0  0  0  0  0  0
   44.2850   25.1910  -14.4940 C   0  0  0  0  0  0  0  0  0  0  0  0
   44.4120   25.3660  -13.1150 C   0  0  0  0  0  0  0  0  0  0  0  0
   43.4130   26.0260  -12.4040 C   0  0  0  0  0  0  0  0  0  0  0  0
   43.6020   26.1630  -11.0560 O   0  0  0  0  0  0  0  0  0  0  0  0
   42.2860   26.5130  -13.0710 C   0  0  0  0  0  0  0  0  0  0  0  0
   41.2130   27.2120  -12.3610 C   0  0  0  0  0  0  0  0  0  0  0  0
   41.2550   27.4120  -11.1490 O   0  0  0  0  0  0  0  0  0  0  0  0
   40.0570   27.6810  -13.1590 C   0  0  0  0  0  0  0  0  0  0  0  0
   39.0560   28.3520  -12.4830 O   0  0  0  0  0  0  0  0  0  0  0  0
   38.2310   29.0330  -15.0820 C   0  0  0  0  0  0  0  0  0  0  0  0
   37.2130   29.4750  -15.9310 C   0  0  0  0  0  0  0  0  0  0  0  0
   36.9000   28.7770  -17.1090 C   0  0  0  0  0  0  0  0  0  0  0  0
   35.7810   29.2800  -17.9920 C   0  0  0  0  0  0  0  0  0  0  0  0
   35.4090   28.3890  -18.9570 F   0  0  0  0  0  0  0  0  0  0  0  0
   34.6410   29.5640  -17.3030 F   0  0  0  0  0  0  0  0  0  0  0  0
   37.0057   25.8113  -18.4060 H   0  0  0  0  0  0  0  0  0  0  0  0
   36.5784   27.3292  -19.2663 H   0  0  0  0  0  0  0  0  0  0  0  0
   38.2769   26.7443  -19.2663 H   0  0  0  0  0  0  0  0  0  0  0  0
   39.2287   26.2813  -16.8161 H   0  0  0  0  0  0  0  0  0  0  0  0
   43.0586   25.5399  -16.2468 H   0  0  0  0  0  0  0  0  0  0  0  0
   45.0731   24.6691  -15.0566 H   0  0  0  0  0  0  0  0  0  0  0  0
   45.3000   24.9831  -12.5907 H   0  0  0  0  0  0  0  0  0  0  0  0
   43.5300   27.0080  -10.6560 H   0  0  0  0  0  0  0  0  0  0  0  0
   38.9830   28.2700  -11.5520 H   0  0  0  0  0  0  0  0  0  0  0  0
   38.4615   29.6001  -14.1681 H   0  0  0  0  0  0  0  0  0  0  0  0
   36.6484   30.3831  -15.6730 H   0  0  0  0  0  0  0  0  0  0  0  0
   36.2123   30.1876  -18.4395 H   0  0  0  0  0  0  0  0  0  0  0  0
  1  2  1  0
  2  3  2  0
  3  4  1  0
  4  5  1  0
  5  6  1  0
  6  7  1  0
  7  8  2  0
  8  9  1  0
  9 10  2  0
 10 11  1  0
 11 12  1  0
 11 13  2  0
 13 14  1  0
 14 15  2  0
 14 16  1  0
 16 17  1  0
  4 18  2  0
 18 19  1  0
 19 20  2  0
 20 21  1  0
 21 22  1  0
 21 23  1  0
 20  2  1  0
 16  5  2  0
 13  7  1  0
  1 24  1  0
  1 25  1  0
  1 26  1  0
  3 27  1  0
  8 28  1  0
  9 29  1  0
 10 30  1  0
 12 31  1  0
 17 32  1  0
 18 33  1  0
 19 34  1  0
 21 35  1  0
M  END
>  <meeko>  (3) 
{"is_sidechain": [false], "free_energy": -7.652, "intermolecular_energy": -9.683, "internal_energy": 0.686}

$$$$
cand_016_out
     RDKit          3D

 35 37  0  0  0  0  0  0  0  0999 V2000
   36.2650   26.9090  -19.6200 C   0  0  0  0  0  0  0  0  0  0  0  0
   36.6870   27.6050  -18.3540 C   0  0  0  0  0  0  0  0  0  0  0  0
   37.8250   27.1420  -17.6700 C   0  0  0  0  0  0  0  0  0  0  0  0
   38.2740   27.7530  -16.4910 C   0  0  0  0  0  0  0  0  0  0  0  0
   39.4820   27.2810  -15.7810 C   0  0  0  0  0  0  0  0  0  0  0  0
   39.4700   27.5940  -14.4260 O   0  0  0  0  0  0  0  0  0  0  0  0
   40.5330   27.2120  -13.6490 C   0  0  0  0  0  0  0  0  0  0  0  0
   40.4870   27.5600  -12.2980 C   0  0  0  0  0  0  0  0  0  0  0  0
   41.5380   27.2020  -11.4500 C   0  0  0  0  0  0  0  0  0  0  0  0
   42.6320   26.4960  -11.9520 C   0  0  0  0  0  0  0  0  0  0  0  0
   42.6760   26.1490  -13.3000 C   0  0  0  0  0  0  0  0  0  0  0  0
   43.7760   25.4570  -13.7250 O   0  0  0  0  0  0  0  0  0  0  0  0
   41.6250   26.5090  -14.1490 C   0  0  0  0  0  0  0  0  0  0  0  0
   41.6320   26.1650  -15.5710 C   0  0  0  0  0  0  0  0  0  0  0  0
   42.5550   25.5390  -16.0860 O   0  0  0  0  0  0  0  0  0  0  0  0
   40.4740   26.6010  -16.3860 C   0  0  0  0  0  0  0  0  0  0  0  0
   40.4830   26.2590  -17.7250 O   0  0  0  0  0  0  0  0  0  0  0  0
   37.5730   28.8640  -16.0100 C   0  0  0  0  0  0  0  0  0  0  0  0
   36.4460   29.3430  -16.6820 C   0  0  0  0  0  0  0  0  0  0  0  0
   35.9920   28.7290  -17.8610 C   0  0  0  0  0  0  0  0  0  0  0  0
   34.7590   29.2690  -18.5490 C   0  0  0  0  0  0  0  0  0  0  0  0
   34.7850   30.6220  -18.7260 F   0  0  0  0  0  0  0  0  0  0  0  0
   34.5670   28.7460  -19.7920 F   0  0  0  0  0  0  0  0  0  0  0  0
   35.7099   25.9935  -19.3676 H   0  0  0  0  0  0  0  0  0  0  0  0
   35.6203   27.5781  -20.2089 H   0  0  0  0  0  0  0  0  0  0  0  0
   37.1563   26.6468  -20.2089 H   0  0  0  0  0  0  0  0  0  0  0  0
   38.3768   26.2786  -18.0702 H   0  0  0  0  0  0  0  0  0  0  0  0
   39.6243   28.1154  -11.9015 H   0  0  0  0  0  0  0  0  0  0  0  0
   41.5031   27.4769  -10.3855 H   0  0  0  0  0  0  0  0  0  0  0  0
   43.4588   26.2138  -11.2836 H   0  0  0  0  0  0  0  0  0  0  0  0
   43.8370   25.1730  -14.6160 H   0  0  0  0  0  0  0  0  0  0  0  0
   39.7410   25.8280  -18.1040 H   0  0  0  0  0  0  0  0  0  0  0  0
   37.9131   29.3660  -15.0923 H   0  0  0  0  0  0  0  0  0  0  0  0
   35.9060   30.2139  -16.2820 H   0  0  0  0  0  0  0  0  0  0  0  0
   33.9495   28.9770  -17.8639 H   0  0  0  0  0  0  0  0  0  0  0  0
  1  2  1  0
  2  3  2  0
  3  4  1  0
  4  5  1  0
  5  6  1  0
  6  7  1  0
  7  8  2  0
  8  9  1  0
  9 10  2  0
 10 11  1  0
 11 12  1  0
 11 13  2  0
 13 14  1  0
 14 15  2  0
 14 16  1  0
 16 17  1  0
  4 18  2  0
 18 19  1  0
 19 20  2  0
 20 21  1  0
 21 22  1  0
 21 23  1  0
 20  2  1  0
 16  5  2  0
 13  7  1  0
  1 24  1  0
  1 25  1  0
  1 26  1  0
  3 27  1  0
  8 28  1  0
  9 29  1  0
 10 30  1  0
 12 31  1  0
 17 32  1  0
 18 33  1  0
 19 34  1  0
 21 35  1  0
M  END
>  <meeko>  (4) 
{"is_sidechain": [false], "free_energy": -6.197, "intermolecular_energy": -7.997, "internal_energy": 0.71}

$$$$
cand_016_out
     RDKit          3D

 35 37  0  0  0  0  0  0  0  0999 V2000
   44.6330   24.9970  -14.9770 C   0  0  0  0  0  0  0  0  0  0  0  0
   43.6820   25.7930  -14.1250 C   0  0  0  0  0  0  0  0  0  0  0  0
   42.4860   26.2620  -14.6980 C   0  0  0  0  0  0  0  0  0  0  0  0
   41.5540   27.0010  -13.9550 C   0  0  0  0  0  0  0  0  0  0  0  0
   40.2870   27.4780  -14.5490 C   0  0  0  0  0  0  0  0  0  0  0  0
   40.0390   26.9310  -15.8030 O   0  0  0  0  0  0  0  0  0  0  0  0
   38.8940   27.2890  -16.4670 C   0  0  0  0  0  0  0  0  0  0  0  0
   38.6920   26.7300  -17.7300 C   0  0  0  0  0  0  0  0  0  0  0  0
   37.5460   27.0520  -18.4600 C   0  0  0  0  0  0  0  0  0  0  0  0
   36.6030   27.9330  -17.9280 C   0  0  0  0  0  0  0  0  0  0  0  0
   36.8060   28.4900  -16.6680 C   0  0  0  0  0  0  0  0  0  0  0  0
   35.8420   29.3440  -16.2080 O   0  0  0  0  0  0  0  0  0  0  0  0
   37.9530   28.1680  -15.9380 C   0  0  0  0  0  0  0  0  0  0  0  0
   38.2060   28.7320  -14.6110 C   0  0  0  0  0  0  0  0  0  0  0  0
   37.4190   29.5080  -14.0730 O   0  0  0  0  0  0  0  0  0  0  0  0
   39.4560   28.3330  -13.9240 C   0  0  0  0  0  0  0  0  0  0  0  0
   39.6780   28.8600  -12.6660 O   0  0  0  0  0  0  0  0  0  0  0  0
   41.8270   27.2490  -12.6060 C   0  0  0  0  0  0  0  0  0  0  0  0
   43.0050   26.7820  -12.0180 C   0  0  0  0  0  0  0  0  0  0  0  0
   43.9420   26.0460  -12.7620 C   0  0  0  0  0  0  0  0  0  0  0  0
   45.2110   25.5720  -12.0920 C   0  0  0  0  0  0  0  0  0  0  0  0
   45.4410   24.2360  -12.2470 F   0  0  0  0  0  0  0  0  0  0  0  0
   46.3290   26.1890  -12.5660 F   0  0  0  0  0  0  0  0  0  0  0  0
   45.3151   24.4261  -14.3298 H   0  0  0  0  0  0  0  0  0  0  0  0
   44.0631   24.3028  -15.6120 H   0  0  0  0  0  0  0  0  0  0  0  0
   45.2161   25.6802  -15.6120 H   0  0  0  0  0  0  0  0  0  0  0  0
   42.2765   26.0436  -15.7555 H   0  0  0  0  0  0  0  0  0  0  0  0
   39.4352   26.0362  -18.1500 H   0  0  0  0  0  0  0  0  0  0  0  0
   37.3863   26.6111  -19.4550 H   0  0  0  0  0  0  0  0  0  0  0  0
   35.7006   28.1870  -18.5034 H   0  0  0  0  0  0  0  0  0  0  0  0
   36.0380   30.2530  -16.0890 H   0  0  0  0  0  0  0  0  0  0  0  0
   40.0440   28.3220  -11.9910 H   0  0  0  0  0  0  0  0  0  0  0  0
   41.1059   27.8183  -12.0010 H   0  0  0  0  0  0  0  0  0  0  0  0
   43.2017   26.9938  -10.9567 H   0  0  0  0  0  0  0  0  0  0  0  0
   45.0361   25.8203  -11.0347 H   0  0  0  0  0  0  0  0  0  0  0  0
  1  2  1  0
  2  3  2  0
  3  4  1  0
  4  5  1  0
  5  6  1  0
  6  7  1  0
  7  8  2  0
  8  9  1  0
  9 10  2  0
 10 11  1  0
 11 12  1  0
 11 13  2  0
 13 14  1  0
 14 15  2  0
 14 16  1  0
 16 17  1  0
  4 18  2  0
 18 19  1  0
 19 20  2  0
 20 21  1  0
 21 22  1  0
 21 23  1  0
 20  2  1  0
 16  5  2  0
 13  7  1  0
  1 24  1  0
  1 25  1  0
  1 26  1  0
  3 27  1  0
  8 28  1  0
  9 29  1  0
 10 30  1  0
 12 31  1  0
 17 32  1  0
 18 33  1  0
 19 34  1  0
 21 35  1  0
M  END
>  <meeko>  (5) 
{"is_sidechain": [false], "free_energy": -6.101, "intermolecular_energy": -7.547, "internal_energy": 0.373}

$$$$
cand_016_out
     RDKit          3D

 35 37  0  0  0  0  0  0  0  0999 V2000
   44.0610   23.1050  -13.9220 C   0  0  0  0  0  0  0  0  0  0  0  0
   43.9010   24.6020  -13.9210 C   0  0  0  0  0  0  0  0  0  0  0  0
   42.6340   25.1510  -14.1930 C   0  0  0  0  0  0  0  0  0  0  0  0
   42.4190   26.5370  -14.1980 C   0  0  0  0  0  0  0  0  0  0  0  0
   41.0850   27.1150  -14.4630 C   0  0  0  0  0  0  0  0  0  0  0  0
   40.6140   26.8260  -15.7390 O   0  0  0  0  0  0  0  0  0  0  0  0
   39.3850   27.3030  -16.1160 C   0  0  0  0  0  0  0  0  0  0  0  0
   38.9590   27.0030  -17.4100 C   0  0  0  0  0  0  0  0  0  0  0  0
   37.7160   27.4580  -17.8580 C   0  0  0  0  0  0  0  0  0  0  0  0
   36.9010   28.2120  -17.0120 C   0  0  0  0  0  0  0  0  0  0  0  0
   37.3290   28.5100  -15.7200 C   0  0  0  0  0  0  0  0  0  0  0  0
   36.4810   29.2520  -14.9450 O   0  0  0  0  0  0  0  0  0  0  0  0
   38.5730   28.0550  -15.2730 C   0  0  0  0  0  0  0  0  0  0  0  0
   39.0600   28.3470  -13.9240 C   0  0  0  0  0  0  0  0  0  0  0  0
   38.3980   28.9980  -13.1180 O   0  0  0  0  0  0  0  0  0  0  0  0
   40.3950   27.8260  -13.5510 C   0  0  0  0  0  0  0  0  0  0  0  0
   40.8410   28.0950  -12.2710 O   0  0  0  0  0  0  0  0  0  0  0  0
   43.4960   27.3780  -13.9000 C   0  0  0  0  0  0  0  0  0  0  0  0
   44.7580   26.8490  -13.6180 C   0  0  0  0  0  0  0  0  0  0  0  0
   44.9770   25.4620  -13.6170 C   0  0  0  0  0  0  0  0  0  0  0  0
   46.3620   24.9310  -13.3220 C   0  0  0  0  0  0  0  0  0  0  0  0
   46.9000   24.2150  -14.3520 F   0  0  0  0  0  0  0  0  0  0  0  0
   47.2660   25.9140  -13.0530 F   0  0  0  0  0  0  0  0  0  0  0  0
   44.1000   22.7397  -12.8852 H   0  0  0  0  0  0  0  0  0  0  0  0
   43.2069   22.6453  -14.4408 H   0  0  0  0  0  0  0  0  0  0  0  0
   44.9930   22.8362  -14.4408 H   0  0  0  0  0  0  0  0  0  0  0  0
   41.7917   24.4766  -14.4069 H   0  0  0  0  0  0  0  0  0  0  0  0
   39.6009   26.4089  -18.0771 H   0  0  0  0  0  0  0  0  0  0  0  0
   37.3795   27.2218  -18.8783 H   0  0  0  0  0  0  0  0  0  0  0  0
   35.9226   28.5703  -17.3647 H   0  0  0  0  0  0  0  0  0  0  0  0
   36.4910   30.1870  -15.0000 H   0  0  0  0  0  0  0  0  0  0  0  0
   40.4980   28.8300  -11.8000 H   0  0  0  0  0  0  0  0  0  0  0  0
   43.3478   28.4679  -13.8875 H   0  0  0  0  0  0  0  0  0  0  0  0
   45.5927   27.5293  -13.3934 H   0  0  0  0  0  0  0  0  0  0  0  0
   46.1961   24.2906  -12.4431 H   0  0  0  0  0  0  0  0  0  0  0  0
  1  2  1  0
  2  3  2  0
  3  4  1  0
  4  5  1  0
  5  6  1  0
  6  7  1  0
  7  8  2  0
  8  9  1  0
  9 10  2  0
 10 11  1  0
 11 12  1  0
 11 13  2  0
 13 14  1  0
 14 15  2  0
 14 16  1  0
 16 17  1  0
  4 18  2  0
 18 19  1  0
 19 20  2  0
 20 21  1  0
 21 22  1  0
 21 23  1  0
 20  2  1  0
 16  5  2  0
 13  7  1  0
  1 24  1  0
  1 25  1  0
  1 26  1  0
  3 27  1  0
  8 28  1  0
  9 29  1  0
 10 30  1  0
 12 31  1  0
 17 32  1  0
 18 33  1  0
 19 34  1  0
 21 35  1  0
M  END
>  <meeko>  (6) 
{"is_sidechain": [false], "free_energy": -5.91, "intermolecular_energy": -6.671, "internal_energy": -0.278}

$$$$
cand_016_out
     RDKit          3D

 35 37  0  0  0  0  0  0  0  0999 V2000
   44.7800   24.8200  -14.7200 C   0  0  0  0  0  0  0  0  0  0  0  0
   43.6560   25.6600  -14.1760 C   0  0  0  0  0  0  0  0  0  0  0  0
   42.5630   25.9560  -15.0110 C   0  0  0  0  0  0  0  0  0  0  0  0
   41.4800   26.7250  -14.5610 C   0  0  0  0  0  0  0  0  0  0  0  0
   40.3210   27.0200  -15.4290 C   0  0  0  0  0  0  0  0  0  0  0  0
   39.4030   27.8760  -14.8330 O   0  0  0  0  0  0  0  0  0  0  0  0
   38.2780   28.2320  -15.5320 C   0  0  0  0  0  0  0  0  0  0  0  0
   37.3750   29.0810  -14.8890 C   0  0  0  0  0  0  0  0  0  0  0  0
   36.2090   29.4830  -15.5450 C   0  0  0  0  0  0  0  0  0  0  0  0
   35.9470   29.0370  -16.8420 C   0  0  0  0  0  0  0  0  0  0  0  0
   36.8490   28.1910  -17.4810 C   0  0  0  0  0  0  0  0  0  0  0  0
   36.5300   27.7930  -18.7500 O   0  0  0  0  0  0  0  0  0  0  0  0
   38.0150   27.7880  -16.8240 C   0  0  0  0  0  0  0  0  0  0  0  0
   38.9890   26.8990  -17.4590 C   0  0  0  0  0  0  0  0  0  0  0  0
   38.8330   26.4710  -18.6010 O   0  0  0  0  0  0  0  0  0  0  0  0
   40.1880   26.5250  -16.6740 C   0  0  0  0  0  0  0  0  0  0  0  0
   41.1080   25.6960  -17.2870 O   0  0  0  0  0  0  0  0  0  0  0  0
   41.4950   27.1830  -13.2390 C   0  0  0  0  0  0  0  0  0  0  0  0
   42.5680   26.8910  -12.3940 C   0  0  0  0  0  0  0  0  0  0  0  0
   43.6550   26.1240  -12.8440 C   0  0  0  0  0  0  0  0  0  0  0  0
   44.8040   25.8430  -11.9020 C   0  0  0  0  0  0  0  0  0  0  0  0
   45.2000   24.5370  -11.9040 F   0  0  0  0  0  0  0  0  0  0  0  0
   45.9230   26.5620  -12.1940 F   0  0  0  0  0  0  0  0  0  0  0  0
   45.3541   24.3909  -13.8856 H   0  0  0  0  0  0  0  0  0  0  0  0
   44.3660   24.0081  -15.3360 H   0  0  0  0  0  0  0  0  0  0  0  0
   45.4414   25.4470  -15.3360 H   0  0  0  0  0  0  0  0  0  0  0  0
   42.5578   25.5746  -16.0428 H   0  0  0  0  0  0  0  0  0  0  0  0
   37.5815   29.4328  -13.8674 H   0  0  0  0  0  0  0  0  0  0  0  0
   35.4966   30.1515  -15.0394 H   0  0  0  0  0  0  0  0  0  0  0  0
   35.0288   29.3539  -17.3582 H   0  0  0  0  0  0  0  0  0  0  0  0
   37.0210   27.1110  -19.1650 H   0  0  0  0  0  0  0  0  0  0  0  0
   41.8990   25.4610  -16.8410 H   0  0  0  0  0  0  0  0  0  0  0  0
   40.6520   27.7799  -12.8608 H   0  0  0  0  0  0  0  0  0  0  0  0
   42.5616   27.2674  -11.3604 H   0  0  0  0  0  0  0  0  0  0  0  0
   44.3928   26.1270  -10.9221 H   0  0  0  0  0  0  0  0  0  0  0  0
  1  2  1  0
  2  3  2  0
  3  4  1  0
  4  5  1  0
  5  6  1  0
  6  7  1  0
  7  8  2  0
  8  9  1  0
  9 10  2  0
 10 11  1  0
 11 12  1  0
 11 13  2  0
 13 14  1  0
 14 15  2  0
 14 16  1  0
 16 17  1  0
  4 18  2  0
 18 19  1  0
 19 20  2  0
 20 21  1  0
 21 22  1  0
 21 23  1  0
 20  2  1  0
 16  5  2  0
 13  7  1  0
  1 24  1  0
  1 25  1  0
  1 26  1  0
  3 27  1  0
  8 28  1  0
  9 29  1  0
 10 30  1  0
 12 31  1  0
 17 32  1  0
 18 33  1  0
 19 34  1  0
 21 35  1  0
M  END
>  <meeko>  (7) 
{"is_sidechain": [false], "free_energy": -5.704, "intermolecular_energy": -7.076, "internal_energy": 0.369}

$$$$
