cand_050_out
     RDKit          3D

 38 40  0  0  0  0  0  0  0  0999 V2000
   46.5870   24.6930  -14.1730 C   0  0  0  0  0  0  0  0  0  0  0  0
   45.3730   24.4720  -13.2830 C   0  0  0  0  0  0  0  0  0  0  0  0
   44.1190   25.0800  -13.8730 C   0  0  0  0  0  0  0  0  0  0  0  0
   43.3950   24.3240  -14.8110 C   0  0  0  0  0  0  0  0  0  0  0  0
   42.2340   24.8310  -15.4010 C   0  0  0  0  0  0  0  0  0  0  0  0
   41.7590   26.1030  -15.0680 C   0  0  0  0  0  0  0  0  0  0  0  0
   40.5390   26.6270  -15.7170 C   0  0  0  0  0  0  0  0  0  0  0  0
   39.7850   27.4400  -14.8780 O   0  0  0  0  0  0  0  0  0  0  0  0
   38.6250   27.9910  -15.3570 C   0  0  0  0  0  0  0  0  0  0  0  0
   37.8920   28.7880  -14.4770 C   0  0  0  0  0  0  0  0  0  0  0  0
   36.7010   29.3830  -14.9020 C   0  0  0  0  0  0  0  0  0  0  0  0
   36.2460   29.1810  -16.2060 C   0  0  0  0  0  0  0  0  0  0  0  0
   36.9790   28.3860  -17.0830 C   0  0  0  0  0  0  0  0  0  0  0  0
   36.4740   28.2300  -18.3450 O   0  0  0  0  0  0  0  0  0  0  0  0
   38.1700   27.7900  -16.6570 C   0  0  0  0  0  0  0  0  0  0  0  0
   38.9700   26.9470  -17.5460 C   0  0  0  0  0  0  0  0  0  0  0  0
   38.6390   26.7270  -18.7090 O   0  0  0  0  0  0  0  0  0  0  0  0
   40.2110   26.3570  -16.9940 C   0  0  0  0  0  0  0  0  0  0  0  0
   40.9690   25.5720  -17.8440 O   0  0  0  0  0  0  0  0  0  0  0  0
   42.4900   26.8650  -14.1440 C   0  0  0  0  0  0  0  0  0  0  0  0
   43.6660   26.3740  -13.5380 C   0  0  0  0  0  0  0  0  0  0  0  0
   44.3900   27.2480  -12.5360 C   0  0  0  0  0  0  0  0  0  0  0  0
   45.7490   27.2020  -12.6500 F   0  0  0  0  0  0  0  0  0  0  0  0
   44.1250   26.9060  -11.2440 F   0  0  0  0  0  0  0  0  0  0  0  0
   44.0570   28.5640  -12.6520 F   0  0  0  0  0  0  0  0  0  0  0  0
   47.4764   24.8549  -13.5464 H   0  0  0  0  0  0  0  0  0  0  0  0
   46.7420   23.8083  -14.8081 H   0  0  0  0  0  0  0  0  0  0  0  0
   46.4203   25.5756  -14.8081 H   0  0  0  0  0  0  0  0  0  0  0  0
   45.2176   23.3904  -13.1565 H   0  0  0  0  0  0  0  0  0  0  0  0
   45.5661   24.9620  -12.3173 H   0  0  0  0  0  0  0  0  0  0  0  0
   43.7474   23.3186  -15.0847 H   0  0  0  0  0  0  0  0  0  0  0  0
   41.6874   24.2220  -16.1361 H   0  0  0  0  0  0  0  0  0  0  0  0
   38.2512   28.9479  -13.4497 H   0  0  0  0  0  0  0  0  0  0  0  0
   36.1220   30.0107  -14.2087 H   0  0  0  0  0  0  0  0  0  0  0  0
   35.3088   29.6497  -16.5406 H   0  0  0  0  0  0  0  0  0  0  0  0
   36.3150   28.9800  -18.8820 H   0  0  0  0  0  0  0  0  0  0  0  0
   40.6910   24.7020  -18.0500 H   0  0  0  0  0  0  0  0  0  0  0  0
   42.1363   27.8738  -13.8846 H   0  0  0  0  0  0  0  0  0  0  0  0
  1  2  1  0
  2  3  1  0
  3  4  2  0
  4  5  1  0
  5  6  2  0
  6  7  1  0
  7  8  1  0
  8  9  1  0
  9 10  2  0
 10 11  1  0
 11 12  2  0
 12 13  1  0
 13 14  1  0
 13 15  2  0
 15 16  1  0
 16 17  2  0
 16 18  1  0
 18 19  1  0
  6 20  1  0
 20 21  2  0
 21 22  1  0
 22 23  1  0
 22 24  1  0
 22 25  1  0
 21  3  1  0
 18  7  2  0
 15  9  1  0
  1 26  1  0
  1 27  1  0
  1 28  1  0
  2 29  1  0
  2 30  1  0
  4 31  1  0
  5 32  1  0
 10 33  1  0
 11 34  1  0
 12 35  1  0
 14 36  1  0
 19 37  1  0
 20 38  1  0
M  END
>  <meeko>  (1) 
{"is_sidechain": [false], "free_energy": -7.824, "intermolecular_energy": -9.654, "internal_energy": 0.002}

$$$$
cand_050_out
     RDKit          3D

 38 40  0  0  0  0  0  0  0  0999 V2000
   46.1910   25.3810  -14.1790 C   0  0  0  0  0  0  0  0  0  0  0  0
   44.9810   24.5480  -13.7830 C   0  0  0  0  0  0  0  0  0  0  0  0
   43.6790   25.2410  -14.1240 C   0  0  0  0  0  0  0  0  0  0  0  0
   43.0700   24.9400  -15.3540 C   0  0  0  0  0  0  0  0  0  0  0  0
   41.8730   25.5520  -15.7340 C   0  0  0  0  0  0  0  0  0  0  0  0
   41.2470   26.4790  -14.8950 C   0  0  0  0  0  0  0  0  0  0  0  0
   39.9900   27.1280  -15.3230 C   0  0  0  0  0  0  0  0  0  0  0  0
   39.5540   26.6950  -16.5700 O   0  0  0  0  0  0  0  0  0  0  0  0
   38.3970   27.2210  -17.0860 C   0  0  0  0  0  0  0  0  0  0  0  0
   38.0040   26.7690  -18.3470 C   0  0  0  0  0  0  0  0  0  0  0  0
   36.8340   27.2620  -18.9300 C   0  0  0  0  0  0  0  0  0  0  0  0
   36.0580   28.2040  -18.2520 C   0  0  0  0  0  0  0  0  0  0  0  0
   36.4530   28.6530  -16.9940 C   0  0  0  0  0  0  0  0  0  0  0  0
   35.6460   29.5770  -16.3870 O   0  0  0  0  0  0  0  0  0  0  0  0
   37.6240   28.1610  -16.4120 C   0  0  0  0  0  0  0  0  0  0  0  0
   38.0740   28.6060  -15.0930 C   0  0  0  0  0  0  0  0  0  0  0  0
   37.4430   29.4270  -14.4310 O   0  0  0  0  0  0  0  0  0  0  0  0
   39.3330   28.0280  -14.5680 C   0  0  0  0  0  0  0  0  0  0  0  0
   39.7450   28.4440  -13.3160 O   0  0  0  0  0  0  0  0  0  0  0  0
   41.8620   26.7930  -13.6740 C   0  0  0  0  0  0  0  0  0  0  0  0
   43.0730   26.1890  -13.2720 C   0  0  0  0  0  0  0  0  0  0  0  0
   43.6660   26.5650  -11.9310 C   0  0  0  0  0  0  0  0  0  0  0  0
   44.3170   25.5380  -11.3120 F   0  0  0  0  0  0  0  0  0  0  0  0
   42.7300   26.9900  -11.0360 F   0  0  0  0  0  0  0  0  0  0  0  0
   44.5790   27.5720  -12.0260 F   0  0  0  0  0  0  0  0  0  0  0  0
   46.7049   25.7348  -13.2731 H   0  0  0  0  0  0  0  0  0  0  0  0
   46.8807   24.7654  -14.7751 H   0  0  0  0  0  0  0  0  0  0  0  0
   45.8622   26.2450  -14.7751 H   0  0  0  0  0  0  0  0  0  0  0  0
   45.0218   23.5867  -14.3161 H   0  0  0  0  0  0  0  0  0  0  0  0
   45.0120   24.4005  -12.6934 H   0  0  0  0  0  0  0  0  0  0  0  0
   43.5432   24.2110  -16.0283 H   0  0  0  0  0  0  0  0  0  0  0  0
   41.4180   25.3019  -16.7038 H   0  0  0  0  0  0  0  0  0  0  0  0
   38.6146   26.0258  -18.8807 H   0  0  0  0  0  0  0  0  0  0  0  0
   36.5239   26.9077  -19.9241 H   0  0  0  0  0  0  0  0  0  0  0  0
   35.1361   28.5910  -18.7106 H   0  0  0  0  0  0  0  0  0  0  0  0
   34.9340   29.2950  -15.8490 H   0  0  0  0  0  0  0  0  0  0  0  0
   40.5180   28.9650  -13.2270 H   0  0  0  0  0  0  0  0  0  0  0  0
   41.3871   27.5310  -13.0108 H   0  0  0  0  0  0  0  0  0  0  0  0
  1  2  1  0
  2  3  1  0
  3  4  2  0
  4  5  1  0
  5  6  2  0
  6  7  1  0
  7  8  1  0
  8  9  1  0
  9 10  2  0
 10 11  1  0
 11 12  2  0
 12 13  1  0
 13 14  1  0
 13 15  2  0
 15 16  1  0
 16 17  2  0
 16 18  1  0
 18 19  1  0
  6 20  1  0
 20 21  2  0
 21 22  1  0
 22 23  1  0
 22 24  1  0
 22 25  1  0
 21  3  1  0
 18  7  2  0
 15  9  1  0
  1 26  1  0
  1 27  1  0
  1 28  1  0
  2 29  1  0
  2 30  1  0
  4 31  1  0
  5 32  1  0
 10 33  1  0
 11 34  1  0
 12 35  1  0
 14 36  1  0
 19 37  1  0
 20 38  1  0
M  END
>  <meeko>  (2) 
{"is_sidechain": [false], "free_energy": -6.465, "intermolecular_energy": -8.136, "internal_energy": 0.161}

$$$$
cand_050_out
     RDKit          3D

 38 40  0  0  0  0  0  0  0  0999 V2000
   46.5550   24.8080  -14.4830 C   0  0  0  0  0  0  0  0  0  0  0  0
   45.4120   24.3740  -13.5770 C   0  0  0  0  0  0  0  0  0  0  0  0
   44.1260   25.1060  -13.8960 C   0  0  0  0  0  0  0  0  0  0  0  0
   43.2030   24.4820  -14.7530 C   0  0  0  0  0  0  0  0  0  0  0  0
   42.0020   25.1070  -15.0950 C   0  0  0  0  0  0  0  0  0  0  0  0
   41.6850   26.3710  -14.5890 C   0  0  0  0  0  0  0  0  0  0  0  0
   40.4160   27.0230  -14.9780 C   0  0  0  0  0  0  0  0  0  0  0  0
   39.9860   26.6560  -16.2480 O   0  0  0  0  0  0  0  0  0  0  0  0
   38.8190   27.1910  -16.7320 C   0  0  0  0  0  0  0  0  0  0  0  0
   38.4320   26.8070  -18.0160 C   0  0  0  0  0  0  0  0  0  0  0  0
   37.2530   27.3130  -18.5690 C   0  0  0  0  0  0  0  0  0  0  0  0
   36.4620   28.2010  -17.8370 C   0  0  0  0  0  0  0  0  0  0  0  0
   36.8510   28.5820  -16.5550 C   0  0  0  0  0  0  0  0  0  0  0  0
   36.0300   29.4550  -15.8950 O   0  0  0  0  0  0  0  0  0  0  0  0
   38.0310   28.0770  -16.0030 C   0  0  0  0  0  0  0  0  0  0  0  0
   38.4760   28.4520  -14.6610 C   0  0  0  0  0  0  0  0  0  0  0  0
   37.8320   29.2220  -13.9510 O   0  0  0  0  0  0  0  0  0  0  0  0
   39.7450   27.8660  -14.1720 C   0  0  0  0  0  0  0  0  0  0  0  0
   40.1520   28.2150  -12.8970 O   0  0  0  0  0  0  0  0  0  0  0  0
   42.6120   27.0030  -13.7470 C   0  0  0  0  0  0  0  0  0  0  0  0
   43.8330   26.3910  -13.3900 C   0  0  0  0  0  0  0  0  0  0  0  0
   44.7740   27.1270  -12.4620 C   0  0  0  0  0  0  0  0  0  0  0  0
   46.0930   26.9430  -12.7600 F   0  0  0  0  0  0  0  0  0  0  0  0
   44.6440   26.7460  -11.1600 F   0  0  0  0  0  0  0  0  0  0  0  0
   44.5800   28.4750  -12.4800 F   0  0  0  0  0  0  0  0  0  0  0  0
   47.4077   25.1318  -13.8681 H   0  0  0  0  0  0  0  0  0  0  0  0
   46.8606   23.9633  -15.1179 H   0  0  0  0  0  0  0  0  0  0  0  0
   46.2230   25.6426  -15.1179 H   0  0  0  0  0  0  0  0  0  0  0  0
   45.2472   23.2941  -13.7058 H   0  0  0  0  0  0  0  0  0  0  0  0
   45.6908   24.6132  -12.5402 H   0  0  0  0  0  0  0  0  0  0  0  0
   43.4303   23.4859  -15.1606 H   0  0  0  0  0  0  0  0  0  0  0  0
   41.2975   24.5991  -15.7701 H   0  0  0  0  0  0  0  0  0  0  0  0
   39.0543   26.1067  -18.5924 H   0  0  0  0  0  0  0  0  0  0  0  0
   36.9475   27.0117  -19.5819 H   0  0  0  0  0  0  0  0  0  0  0  0
   35.5334   28.5989  -18.2721 H   0  0  0  0  0  0  0  0  0  0  0  0
   36.0100   30.3580  -16.1430 H   0  0  0  0  0  0  0  0  0  0  0  0
   39.5940   28.7360  -12.3540 H   0  0  0  0  0  0  0  0  0  0  0  0
   42.3809   28.0040  -13.3537 H   0  0  0  0  0  0  0  0  0  0  0  0
  1  2  1  0
  2  3  1  0
  3  4  2  0
  4  5  1  0
  5  6  2  0
  6  7  1  0
  7  8  1  0
  8  9  1  0
  9 10  2  0
 10 11  1  0
 11 12  2  0
 12 13  1  0
 13 14  1  0
 13 15  2  0
 15 16  1  0
 16 17  2  0
 16 18  1  0
 18 19  1  0
  6 20  1  0
 20 21  2  0
 21 22  1  0
 22 23  1  0
 22 24  1  0
 22 25  1  0
 21  3  1  0
 18  7  2  0
 15  9  1  0
  1 26  1  0
  1 27  1  0
  1 28  1  0
  2 29  1  0
  2 30  1  0
  4 31  1  0
  5 32  1  0
 10 33  1  0
 11 34  1  0
 12 35  1  0
 14 36  1  0
 19 37  1  0
 20 38  1  0
M  END
>  <meeko>  (3) 
{"is_sidechain": [false], "free_energy": -6.39, "intermolecular_energy": -8.193, "internal_energy": 0.31}

$$$$
cand_050_out
     RDKit          3D

 38 40  0  0  0  0  0  0  0  0999 V2000
   36.7580   26.5500  -19.9160 C   0  0  0  0  0  0  0  0  0  0  0  0
   36.4730   27.4500  -18.7220 C   0  0  0  0  0  0  0  0  0  0  0  0
   37.5430   27.3350  -17.6580 C   0  0  0  0  0  0  0  0  0  0  0  0
   38.4840   26.2980  -17.7730 C   0  0  0  0  0  0  0  0  0  0  0  0
   39.4910   26.1300  -16.8190 C   0  0  0  0  0  0  0  0  0  0  0  0
   39.5900   26.9950  -15.7250 C   0  0  0  0  0  0  0  0  0  0  0  0
   40.6520   26.7890  -14.7180 C   0  0  0  0  0  0  0  0  0  0  0  0
   41.7940   26.1980  -15.2470 O   0  0  0  0  0  0  0  0  0  0  0  0
   42.8570   25.9510  -14.4170 C   0  0  0  0  0  0  0  0  0  0  0  0
   43.9760   25.3420  -14.9860 C   0  0  0  0  0  0  0  0  0  0  0  0
   45.0950   25.0650  -14.1960 C   0  0  0  0  0  0  0  0  0  0  0  0
   45.0940   25.3960  -12.8400 C   0  0  0  0  0  0  0  0  0  0  0  0
   43.9750   26.0030  -12.2750 C   0  0  0  0  0  0  0  0  0  0  0  0
   44.0420   26.2990  -10.9400 O   0  0  0  0  0  0  0  0  0  0  0  0
   42.8560   26.2800  -13.0650 C   0  0  0  0  0  0  0  0  0  0  0  0
   41.6610   26.9160  -12.5100 C   0  0  0  0  0  0  0  0  0  0  0  0
   41.5850   27.2430  -11.3280 O   0  0  0  0  0  0  0  0  0  0  0  0
   40.5260   27.1590  -13.4300 C   0  0  0  0  0  0  0  0  0  0  0  0
   39.4050   27.7720  -12.9020 O   0  0  0  0  0  0  0  0  0  0  0  0
   38.6410   28.0210  -15.6000 C   0  0  0  0  0  0  0  0  0  0  0  0
   37.6140   28.2070  -16.5500 C   0  0  0  0  0  0  0  0  0  0  0  0
   36.6390   29.3480  -16.3560 C   0  0  0  0  0  0  0  0  0  0  0  0
   35.4540   29.1720  -17.0100 F   0  0  0  0  0  0  0  0  0  0  0  0
   37.1220   30.5420  -16.8010 F   0  0  0  0  0  0  0  0  0  0  0  0
   36.3100   29.5400  -15.0480 F   0  0  0  0  0  0  0  0  0  0  0  0
   37.0722   25.5576  -19.5604 H   0  0  0  0  0  0  0  0  0  0  0  0
   35.8476   26.4498  -20.5252 H   0  0  0  0  0  0  0  0  0  0  0  0
   37.5601   26.9921  -20.5252 H   0  0  0  0  0  0  0  0  0  0  0  0
   36.4257   28.4934  -19.0669 H   0  0  0  0  0  0  0  0  0  0  0  0
   35.5172   27.1341  -18.2786 H   0  0  0  0  0  0  0  0  0  0  0  0
   38.4271   25.6076  -18.6274 H   0  0  0  0  0  0  0  0  0  0  0  0
   40.2138   25.3082  -16.9299 H   0  0  0  0  0  0  0  0  0  0  0  0
   43.9774   25.0804  -16.0544 H   0  0  0  0  0  0  0  0  0  0  0  0
   45.9780   24.5854  -14.6435 H   0  0  0  0  0  0  0  0  0  0  0  0
   45.9752   25.1779  -12.2188 H   0  0  0  0  0  0  0  0  0  0  0  0
   43.4010   26.8620  -10.5540 H   0  0  0  0  0  0  0  0  0  0  0  0
   39.4240   28.1100  -12.0280 H   0  0  0  0  0  0  0  0  0  0  0  0
   38.6992   28.7000  -14.7366 H   0  0  0  0  0  0  0  0  0  0  0  0
  1  2  1  0
  2  3  1  0
  3  4  2  0
  4  5  1  0
  5  6  2  0
  6  7  1  0
  7  8  1  0
  8  9  1  0
  9 10  2  0
 10 11  1  0
 11 12  2  0
 12 13  1  0
 13 14  1  0
 13 15  2  0
 15 16  1  0
 16 17  2  0
 16 18  1  0
 18 19  1  0
  6 20  1  0
 20 21  2  0
 21 22  1  0
 22 23  1  0
 22 24  1  0
 22 25  1  0
 21  3  1  0
 18  7  2  0
 15  9  1  0
  1 26  1  0
  1 27  1  0
  1 28  1  0
  2 29  1  0
  2 30  1  0
  4 31  1  0
  5 32  1  0
 10 33  1  0
 11 34  1  0
 12 35  1  0
 14 36  1  0
 19 37  1  0
 20 38  1  0
M  END
>  <meeko>  (4) 
{"is_sidechain": [false], "free_energy": -5.99, "intermolecular_energy": -7.614, "internal_energy": 0.226}

$$$$
cand_050_out
     RDKit          3D

 38 40  0  0  0  0  0  0  0  0999 V2000
   36.1440   30.3010  -17.9910 C   0  0  0  0  0  0  0  0  0  0  0  0
   35.7700   29.1830  -17.0280 C   0  0  0  0  0  0  0  0  0  0  0  0
   36.9760   28.6470  -16.2870 C   0  0  0  0  0  0  0  0  0  0  0  0
   37.2620   29.1750  -15.0170 C   0  0  0  0  0  0  0  0  0  0  0  0
   38.3650   28.7300  -14.2840 C   0  0  0  0  0  0  0  0  0  0  0  0
   39.2120   27.7420  -14.7970 C   0  0  0  0  0  0  0  0  0  0  0  0
   40.3840   27.2980  -14.0130 C   0  0  0  0  0  0  0  0  0  0  0  0
   41.3990   26.7730  -14.8060 O   0  0  0  0  0  0  0  0  0  0  0  0
   42.5450   26.3230  -14.2030 C   0  0  0  0  0  0  0  0  0  0  0  0
   43.5310   25.7900  -15.0340 C   0  0  0  0  0  0  0  0  0  0  0  0
   44.7240   25.3160  -14.4840 C   0  0  0  0  0  0  0  0  0  0  0  0
   44.9310   25.3760  -13.1050 C   0  0  0  0  0  0  0  0  0  0  0  0
   43.9460   25.9080  -12.2770 C   0  0  0  0  0  0  0  0  0  0  0  0
   44.2140   25.9350  -10.9360 O   0  0  0  0  0  0  0  0  0  0  0  0
   42.7510   26.3810  -12.8280 C   0  0  0  0  0  0  0  0  0  0  0  0
   41.6910   26.9480  -11.9940 C   0  0  0  0  0  0  0  0  0  0  0  0
   41.8000   27.0410  -10.7730 O   0  0  0  0  0  0  0  0  0  0  0  0
   40.4610   27.4140  -12.6740 C   0  0  0  0  0  0  0  0  0  0  0  0
   39.4690   27.9600  -11.8820 O   0  0  0  0  0  0  0  0  0  0  0  0
   38.9370   27.2260  -16.0710 C   0  0  0  0  0  0  0  0  0  0  0  0
   37.8300   27.6620  -16.8300 C   0  0  0  0  0  0  0  0  0  0  0  0
   37.5880   27.0440  -18.1900 C   0  0  0  0  0  0  0  0  0  0  0  0
   36.4370   27.4700  -18.7880 F   0  0  0  0  0  0  0  0  0  0  0  0
   37.4900   25.6860  -18.1470 F   0  0  0  0  0  0  0  0  0  0  0  0
   38.5840   27.3210  -19.0760 F   0  0  0  0  0  0  0  0  0  0  0  0
   36.4422   31.1925  -17.4198 H   0  0  0  0  0  0  0  0  0  0  0  0
   36.9818   29.9743  -18.6246 H   0  0  0  0  0  0  0  0  0  0  0  0
   35.2783   30.5441  -18.6246 H   0  0  0  0  0  0  0  0  0  0  0  0
   35.0470   29.5718  -16.2958 H   0  0  0  0  0  0  0  0  0  0  0  0
   35.3375   28.3592  -17.6147 H   0  0  0  0  0  0  0  0  0  0  0  0
   36.6074   29.9508  -14.5931 H   0  0  0  0  0  0  0  0  0  0  0  0
   38.5696   29.1612  -13.2929 H   0  0  0  0  0  0  0  0  0  0  0  0
   43.3689   25.7432  -16.1210 H   0  0  0  0  0  0  0  0  0  0  0  0
   45.5014   24.8949  -15.1384 H   0  0  0  0  0  0  0  0  0  0  0  0
   45.8714   25.0034  -12.6727 H   0  0  0  0  0  0  0  0  0  0  0  0
   45.1000   25.8980  -10.6350 H   0  0  0  0  0  0  0  0  0  0  0  0
   39.3930   27.7040  -10.9840 H   0  0  0  0  0  0  0  0  0  0  0  0
   39.6036   26.4587  -16.4915 H   0  0  0  0  0  0  0  0  0  0  0  0
  1  2  1  0
  2  3  1  0
  3  4  2  0
  4  5  1  0
  5  6  2  0
  6  7  1  0
  7  8  1  0
  8  9  1  0
  9 10  2  0
 10 11  1  0
 11 12  2  0
 12 13  1  0
 13 14  1  0
 13 15  2  0
 15 16  1  0
 16 17  2  0
 16 18  1  0
 18 19  1  0
  6 20  1  0
 20 21  2  0
 21 22  1  0
 22 23  1  0
 22 24  1  0
 22 25  1  0
 21  3  1  0
 18  7  2  0
 15  9  1  0
  1 26  1  0
  1 27  1  0
  1 28  1  0
  2 29  1  0
  2 30  1  0
  4 31  1  0
  5 32  1  0
 10 33  1  0
 11 34  1  0
 12 35  1  0
 14 36  1  0
 19 37  1  0
 20 38  1  0
M  END
>  <meeko>  (5) 
{"is_sidechain": [false], "free_energy": -5.164, "intermolecular_energy": -6.939, "internal_energy": 0.57}

$$$$
