cand_019_out
     RDKit          3D

 35 37  0  0  0  0  0  0  0  0999 V2000
   38.7330   26.6880  -18.6200 O   0  0  0  0  0  0  0  0  0  0  0  0
   39.0640   26.9160  -17.4590 C   0  0  0  0  0  0  0  0  0  0  0  0
   40.3070   26.3330  -16.9030 C   0  0  0  0  0  0  0  0  0  0  0  0
   41.0490   25.5190  -17.7400 O   0  0  0  0  0  0  0  0  0  0  0  0
   40.6320   26.6080  -15.6270 C   0  0  0  0  0  0  0  0  0  0  0  0
   41.8400   26.0710  -14.9640 C   0  0  0  0  0  0  0  0  0  0  0  0
   42.2880   24.7660  -15.1940 C   0  0  0  0  0  0  0  0  0  0  0  0
   43.4450   24.2870  -14.5740 C   0  0  0  0  0  0  0  0  0  0  0  0
   44.1870   25.1030  -13.7080 C   0  0  0  0  0  0  0  0  0  0  0  0
   45.4350   24.5580  -13.0610 C   0  0  0  0  0  0  0  0  0  0  0  0
   46.4270   24.3200  -13.9650 F   0  0  0  0  0  0  0  0  0  0  0  0
   43.7650   26.4310  -13.4840 C   0  0  0  0  0  0  0  0  0  0  0  0
   44.5410   27.3610  -12.5780 C   0  0  0  0  0  0  0  0  0  0  0  0
   45.8880   27.2520  -12.7530 F   0  0  0  0  0  0  0  0  0  0  0  0
   44.2580   28.6800  -12.7940 F   0  0  0  0  0  0  0  0  0  0  0  0
   42.5930   26.8940  -14.1130 C   0  0  0  0  0  0  0  0  0  0  0  0
   39.8640   27.4050  -14.7860 O   0  0  0  0  0  0  0  0  0  0  0  0
   38.7110   27.9650  -15.2740 C   0  0  0  0  0  0  0  0  0  0  0  0
   37.9750   28.7660  -14.3990 C   0  0  0  0  0  0  0  0  0  0  0  0
   36.7910   29.3660  -14.8320 C   0  0  0  0  0  0  0  0  0  0  0  0
   36.3420   29.1650  -16.1390 C   0  0  0  0  0  0  0  0  0  0  0  0
   37.0780   28.3650  -17.0100 C   0  0  0  0  0  0  0  0  0  0  0  0
   36.5800   28.2110  -18.2750 O   0  0  0  0  0  0  0  0  0  0  0  0
   38.2620   27.7660  -16.5760 C   0  0  0  0  0  0  0  0  0  0  0  0
   41.2660   24.6470  -17.4750 H   0  0  0  0  0  0  0  0  0  0  0  0
   41.7226   24.1089  -15.8712 H   0  0  0  0  0  0  0  0  0  0  0  0
   43.7780   23.2567  -14.7677 H   0  0  0  0  0  0  0  0  0  0  0  0
   45.7977   25.2880  -12.3224 H   0  0  0  0  0  0  0  0  0  0  0  0
   45.1761   23.5998  -12.5868 H   0  0  0  0  0  0  0  0  0  0  0  0
   44.2348   27.0522  -11.5676 H   0  0  0  0  0  0  0  0  0  0  0  0
   42.2597   27.9266  -13.9326 H   0  0  0  0  0  0  0  0  0  0  0  0
   38.3276   28.9243  -13.3692 H   0  0  0  0  0  0  0  0  0  0  0  0
   36.2112   29.9977  -14.1429 H   0  0  0  0  0  0  0  0  0  0  0  0
   35.4090   29.6375  -16.4800 H   0  0  0  0  0  0  0  0  0  0  0  0
   37.1400   27.9200  -18.9670 H   0  0  0  0  0  0  0  0  0  0  0  0
  1  2  2  0
  2  3  1  0
  3  4  1  0
  3  5  2  0
  5  6  1  0
  6  7  2  0
  7  8  1  0
  8  9  2  0
  9 10  1  0
 10 11  1  0
  9 12  1  0
 12 13  1  0
 13 14  1  0
 13 15  1  0
 12 16  2  0
  5 17  1  0
 17 18  1  0
 18 19  2  0
 19 20  1  0
 20 21  2  0
 21 22  1  0
 22 23  1  0
 22 24  2  0
 24  2  1  0
 16  6  1  0
 24 18  1  0
  4 25  1  0
  7 26  1  0
  8 27  1  0
 10 28  1  0
 10 29  1  0
 13 30  1  0
 16 31  1  0
 19 32  1  0
 20 33  1  0
 21 34  1  0
 23 35  1  0
M  END
>  <meeko>  (1) 
{"is_sidechain": [false], "free_energy": -7.777, "intermolecular_energy": -9.595, "internal_energy": 0.136}

$$$$
cand_019_out
     RDKit          3D

 35 37  0  0  0  0  0  0  0  0999 V2000
   38.3190   29.1200  -13.1960 O   0  0  0  0  0  0  0  0  0  0  0  0
   38.8970   28.3970  -14.0040 C   0  0  0  0  0  0  0  0  0  0  0  0
   40.1690   27.7300  -13.6420 C   0  0  0  0  0  0  0  0  0  0  0  0
   40.6680   27.9760  -12.3750 O   0  0  0  0  0  0  0  0  0  0  0  0
   40.7680   26.9480  -14.5570 C   0  0  0  0  0  0  0  0  0  0  0  0
   42.0460   26.2450  -14.3100 C   0  0  0  0  0  0  0  0  0  0  0  0
   42.3180   24.9930  -14.8710 C   0  0  0  0  0  0  0  0  0  0  0  0
   43.5420   24.3570  -14.6430 C   0  0  0  0  0  0  0  0  0  0  0  0
   44.5280   24.9590  -13.8480 C   0  0  0  0  0  0  0  0  0  0  0  0
   45.8400   24.2500  -13.6280 C   0  0  0  0  0  0  0  0  0  0  0  0
   46.7750   24.5850  -14.5610 F   0  0  0  0  0  0  0  0  0  0  0  0
   44.2810   26.2350  -13.2960 C   0  0  0  0  0  0  0  0  0  0  0  0
   45.3190   26.9400  -12.4510 C   0  0  0  0  0  0  0  0  0  0  0  0
   46.5510   26.9390  -13.0340 F   0  0  0  0  0  0  0  0  0  0  0  0
   45.0280   28.2560  -12.2320 F   0  0  0  0  0  0  0  0  0  0  0  0
   43.0400   26.8570  -13.5320 C   0  0  0  0  0  0  0  0  0  0  0  0
   40.2710   26.7310  -15.8370 O   0  0  0  0  0  0  0  0  0  0  0  0
   39.0910   27.3290  -16.2000 C   0  0  0  0  0  0  0  0  0  0  0  0
   38.6230   27.0750  -17.4900 C   0  0  0  0  0  0  0  0  0  0  0  0
   37.4280   27.6540  -17.9240 C   0  0  0  0  0  0  0  0  0  0  0  0
   36.7020   28.4860  -17.0680 C   0  0  0  0  0  0  0  0  0  0  0  0
   37.1720   28.7370  -15.7810 C   0  0  0  0  0  0  0  0  0  0  0  0
   36.4110   29.5600  -14.9970 O   0  0  0  0  0  0  0  0  0  0  0  0
   38.3670   28.1580  -15.3480 C   0  0  0  0  0  0  0  0  0  0  0  0
   41.5940   27.9810  -12.2300 H   0  0  0  0  0  0  0  0  0  0  0  0
   41.5597   24.5028  -15.4992 H   0  0  0  0  0  0  0  0  0  0  0  0
   43.7341   23.3718  -15.0930 H   0  0  0  0  0  0  0  0  0  0  0  0
   46.2232   24.5173  -12.6322 H   0  0  0  0  0  0  0  0  0  0  0  0
   45.6549   23.1689  -13.7122 H   0  0  0  0  0  0  0  0  0  0  0  0
   45.3137   26.3728  -11.5085 H   0  0  0  0  0  0  0  0  0  0  0  0
   42.8451   27.8476  -13.0954 H   0  0  0  0  0  0  0  0  0  0  0  0
   39.1943   26.4198  -18.1641 H   0  0  0  0  0  0  0  0  0  0  0  0
   37.0583   27.4547  -18.9407 H   0  0  0  0  0  0  0  0  0  0  0  0
   35.7611   28.9419  -17.4097 H   0  0  0  0  0  0  0  0  0  0  0  0
   35.9030   30.2420  -15.3880 H   0  0  0  0  0  0  0  0  0  0  0  0
  1  2  2  0
  2  3  1  0
  3  4  1  0
  3  5  2  0
  5  6  1  0
  6  7  2  0
  7  8  1  0
  8  9  2  0
  9 10  1  0
 10 11  1  0
  9 12  1  0
 12 13  1  0
 13 14  1  0
 13 15  1  0
 12 16  2  0
  5 17  1  0
 17 18  1  0
 18 19  2  0
 19 20  1  0
 20 21  2  0
 21 22  1  0
 22 23  1  0
 22 24  2  0
 24  2  1  0
 16  6  1  0
 24 18  1  0
  4 25  1  0
  7 26  1  0
  8 27  1  0
 10 28  1  0
 10 29  1  0
 13 30  1  0
 16 31  1  0
 19 32  1  0
 20 33  1  0
 21 34  1  0
 23 35  1  0
M  END
>  <meeko>  (2) 
{"is_sidechain": [false], "free_energy": -7.483, "intermolecular_energy": -9.23, "internal_energy": 0.134}

$$$$
cand_019_out
     RDKit          3D

 35 37  0  0  0  0  0  0  0  0999 V2000
   39.0060   28.5170  -12.8590 O   0  0  0  0  0  0  0  0  0  0  0  0
   39.6230   27.8800  -13.7100 C   0  0  0  0  0  0  0  0  0  0  0  0
   40.9470   27.2940  -13.3970 C   0  0  0  0  0  0  0  0  0  0  0  0
   41.4470   27.5130  -12.1260 O   0  0  0  0  0  0  0  0  0  0  0  0
   41.5880   26.6050  -14.3580 C   0  0  0  0  0  0  0  0  0  0  0  0
   42.9190   25.9880  -14.1630 C   0  0  0  0  0  0  0  0  0  0  0  0
   43.1010   24.6020  -14.2060 C   0  0  0  0  0  0  0  0  0  0  0  0
   44.3710   24.0430  -14.0420 C   0  0  0  0  0  0  0  0  0  0  0  0
   45.4940   24.8560  -13.8310 C   0  0  0  0  0  0  0  0  0  0  0  0
   46.8510   24.2200  -13.6650 C   0  0  0  0  0  0  0  0  0  0  0  0
   47.2500   24.1800  -12.3630 F   0  0  0  0  0  0  0  0  0  0  0  0
   45.3330   26.2580  -13.8110 C   0  0  0  0  0  0  0  0  0  0  0  0
   46.5130   27.1830  -13.6120 C   0  0  0  0  0  0  0  0  0  0  0  0
   47.0290   27.1030  -12.3530 F   0  0  0  0  0  0  0  0  0  0  0  0
   47.5590   26.9050  -14.4450 F   0  0  0  0  0  0  0  0  0  0  0  0
   44.0450   26.8040  -13.9730 C   0  0  0  0  0  0  0  0  0  0  0  0
   41.0880   26.4150  -15.6410 O   0  0  0  0  0  0  0  0  0  0  0  0
   39.8620   26.9400  -15.9590 C   0  0  0  0  0  0  0  0  0  0  0  0
   39.3940   26.7170  -17.2550 C   0  0  0  0  0  0  0  0  0  0  0  0
   38.1520   27.2250  -17.6440 C   0  0  0  0  0  0  0  0  0  0  0  0
   37.3800   27.9560  -16.7390 C   0  0  0  0  0  0  0  0  0  0  0  0
   37.8500   28.1780  -15.4460 C   0  0  0  0  0  0  0  0  0  0  0  0
   37.0430   28.9020  -14.6120 O   0  0  0  0  0  0  0  0  0  0  0  0
   39.0920   27.6690  -15.0580 C   0  0  0  0  0  0  0  0  0  0  0  0
   42.2440   27.0990  -11.8580 H   0  0  0  0  0  0  0  0  0  0  0  0
   42.2346   23.9446  -14.3708 H   0  0  0  0  0  0  0  0  0  0  0  0
   44.4916   22.9503  -14.0789 H   0  0  0  0  0  0  0  0  0  0  0  0
   46.8091   23.1917  -14.0534 H   0  0  0  0  0  0  0  0  0  0  0  0
   47.5780   24.8311  -14.2200 H   0  0  0  0  0  0  0  0  0  0  0  0
   46.0974   28.1800  -13.8199 H   0  0  0  0  0  0  0  0  0  0  0  0
   43.9184   27.8965  -13.9501 H   0  0  0  0  0  0  0  0  0  0  0  0
   40.0021   26.1422  -17.9690 H   0  0  0  0  0  0  0  0  0  0  0  0
   37.7818   27.0488  -18.6647 H   0  0  0  0  0  0  0  0  0  0  0  0
   36.4024   28.3560  -17.0461 H   0  0  0  0  0  0  0  0  0  0  0  0
   37.4210   29.4370  -13.9420 H   0  0  0  0  0  0  0  0  0  0  0  0
  1  2  2  0
  2  3  1  0
  3  4  1  0
  3  5  2  0
  5  6  1  0
  6  7  2  0
  7  8  1  0
  8  9  2  0
  9 10  1  0
 10 11  1  0
  9 12  1  0
 12 13  1  0
 13 14  1  0
 13 15  1  0
 12 16  2  0
  5 17  1  0
 17 18  1  0
 18 19  2  0
 19 20  1  0
 20 21  2  0
 21 22  1  0
 22 23  1  0
 22 24  2  0
 24  2  1  0
 16  6  1  0
 24 18  1  0
  4 25  1  0
  7 26  1  0
  8 27  1  0
 10 28  1  0
 10 29  1  0
 13 30  1  0
 16 31  1  0
 19 32  1  0
 20 33  1  0
 21 34  1  0
 23 35  1  0
M  END
>  <meeko>  (3) 
{"is_sidechain": [false], "free_energy": -7.299, "intermolecular_energy": -8.563, "internal_energy": -0.308}

$$$$
cand_019_out
     RDKit          3D

 35 37  0  0  0  0  0  0  0  0999 V2000
   41.3720   27.3770  -11.0740 O   0  0  0  0  0  0  0  0  0  0  0  0
   41.2580   27.2290  -12.2890 C   0  0  0  0  0  0  0  0  0  0  0  0
   40.0590   27.7310  -12.9990 C   0  0  0  0  0  0  0  0  0  0  0  0
   39.0870   28.3490  -12.2330 O   0  0  0  0  0  0  0  0  0  0  0  0
   39.9750   27.5460  -14.3290 C   0  0  0  0  0  0  0  0  0  0  0  0
   38.8200   27.9930  -15.1380 C   0  0  0  0  0  0  0  0  0  0  0  0
   37.9530   28.9960  -14.6930 C   0  0  0  0  0  0  0  0  0  0  0  0
   36.8820   29.4180  -15.4850 C   0  0  0  0  0  0  0  0  0  0  0  0
   36.6510   28.8490  -16.7460 C   0  0  0  0  0  0  0  0  0  0  0  0
   35.4910   29.3330  -17.5780 C   0  0  0  0  0  0  0  0  0  0  0  0
   35.7580   30.5120  -18.2060 F   0  0  0  0  0  0  0  0  0  0  0  0
   37.5320   27.8540  -17.2230 C   0  0  0  0  0  0  0  0  0  0  0  0
   37.3420   27.2240  -18.5850 C   0  0  0  0  0  0  0  0  0  0  0  0
   37.5630   25.8800  -18.5700 F   0  0  0  0  0  0  0  0  0  0  0  0
   36.0760   27.3740  -19.0730 F   0  0  0  0  0  0  0  0  0  0  0  0
   38.6020   27.4380  -16.4080 C   0  0  0  0  0  0  0  0  0  0  0  0
   40.9450   26.8980  -15.0850 O   0  0  0  0  0  0  0  0  0  0  0  0
   42.0710   26.4280  -14.4560 C   0  0  0  0  0  0  0  0  0  0  0  0
   43.0240   25.7940  -15.2550 C   0  0  0  0  0  0  0  0  0  0  0  0
   44.1920   25.2910  -14.6780 C   0  0  0  0  0  0  0  0  0  0  0  0
   44.4070   25.4220  -13.3040 C   0  0  0  0  0  0  0  0  0  0  0  0
   43.4540   26.0550  -12.5100 C   0  0  0  0  0  0  0  0  0  0  0  0
   43.7290   26.1480  -11.1730 O   0  0  0  0  0  0  0  0  0  0  0  0
   42.2860   26.5580  -13.0880 C   0  0  0  0  0  0  0  0  0  0  0  0
   38.6330   29.0970  -12.5670 H   0  0  0  0  0  0  0  0  0  0  0  0
   38.1161   29.4580  -13.7081 H   0  0  0  0  0  0  0  0  0  0  0  0
   36.2110   30.2070  -15.1146 H   0  0  0  0  0  0  0  0  0  0  0  0
   35.2600   28.5723  -18.3382 H   0  0  0  0  0  0  0  0  0  0  0  0
   34.6395   29.4988  -16.9016 H   0  0  0  0  0  0  0  0  0  0  0  0
   38.0724   27.7497  -19.2176 H   0  0  0  0  0  0  0  0  0  0  0  0
   39.2845   26.6579  -16.7764 H   0  0  0  0  0  0  0  0  0  0  0  0
   42.8553   25.6908  -16.3371 H   0  0  0  0  0  0  0  0  0  0  0  0
   44.9438   24.7909  -15.3063 H   0  0  0  0  0  0  0  0  0  0  0  0
   45.3273   25.0259  -12.8500 H   0  0  0  0  0  0  0  0  0  0  0  0
   43.5870   25.4110  -10.6130 H   0  0  0  0  0  0  0  0  0  0  0  0
  1  2  2  0
  2  3  1  0
  3  4  1  0
  3  5  2  0
  5  6  1  0
  6  7  2  0
  7  8  1  0
  8  9  2  0
  9 10  1  0
 10 11  1  0
  9 12  1  0
 12 13  1  0
 13 14  1  0
 13 15  1  0
 12 16  2  0
  5 17  1  0
 17 18  1  0
 18 19  2  0
 19 20  1  0
 20 21  2  0
 21 22  1  0
 22 23  1  0
 22 24  2  0
 24  2  1  0
 16  6  1  0
 24 18  1  0
  4 25  1  0
  7 26  1  0
  8 27  1  0
 10 28  1  0
 10 29  1  0
 13 30  1  0
 16 31  1  0
 19 32  1  0
 20 33  1  0
 21 34  1  0
 23 35  1  0
M  END
>  <meeko>  (4) 
{"is_sidechain": [false], "free_energy": -7.014, "intermolecular_energy": -9.09, "internal_energy": 0.572}

$$$$
cand_019_out
     RDKit          3D

 35 37  0  0  0  0  0  0  0  0999 V2000
   41.4840   27.2940  -11.4020 O   0  0  0  0  0  0  0  0  0  0  0  0
   41.5850   26.9510  -12.5780 C   0  0  0  0  0  0  0  0  0  0  0  0
   40.4690   27.1760  -13.5250 C   0  0  0  0  0  0  0  0  0  0  0  0
   39.3250   27.7660  -13.0200 O   0  0  0  0  0  0  0  0  0  0  0  0
   40.6220   26.7840  -14.8030 C   0  0  0  0  0  0  0  0  0  0  0  0
   39.5720   26.9460  -15.8320 C   0  0  0  0  0  0  0  0  0  0  0  0
   39.5110   26.1210  -16.9590 C   0  0  0  0  0  0  0  0  0  0  0  0
   38.4960   26.2780  -17.9070 C   0  0  0  0  0  0  0  0  0  0  0  0
   37.5120   27.2650  -17.7510 C   0  0  0  0  0  0  0  0  0  0  0  0
   36.4270   27.4020  -18.7880 C   0  0  0  0  0  0  0  0  0  0  0  0
   36.5980   26.5470  -19.8350 F   0  0  0  0  0  0  0  0  0  0  0  0
   37.5420   28.0890  -16.6050 C   0  0  0  0  0  0  0  0  0  0  0  0
   36.4920   29.1540  -16.3750 C   0  0  0  0  0  0  0  0  0  0  0  0
   36.4260   29.5450  -15.0720 F   0  0  0  0  0  0  0  0  0  0  0  0
   36.7260   30.2990  -17.0820 F   0  0  0  0  0  0  0  0  0  0  0  0
   38.5760   27.9200  -15.6640 C   0  0  0  0  0  0  0  0  0  0  0  0
   41.7670   26.1660  -15.2930 O   0  0  0  0  0  0  0  0  0  0  0  0
   42.8200   25.9500  -14.4410 C   0  0  0  0  0  0  0  0  0  0  0  0
   43.9530   25.3370  -14.9770 C   0  0  0  0  0  0  0  0  0  0  0  0
   45.0610   25.0870  -14.1640 C   0  0  0  0  0  0  0  0  0  0  0  0
   45.0350   25.4500  -12.8150 C   0  0  0  0  0  0  0  0  0  0  0  0
   43.9030   26.0620  -12.2830 C   0  0  0  0  0  0  0  0  0  0  0  0
   43.9450   26.3900  -10.9560 O   0  0  0  0  0  0  0  0  0  0  0  0
   42.7960   26.3110  -13.0970 C   0  0  0  0  0  0  0  0  0  0  0  0
   39.3910   28.5220  -12.4690 H   0  0  0  0  0  0  0  0  0  0  0  0
   40.2711   25.3387  -17.1014 H   0  0  0  0  0  0  0  0  0  0  0  0
   38.4686   25.6187  -18.7871 H   0  0  0  0  0  0  0  0  0  0  0  0
   35.4569   27.1908  -18.3143 H   0  0  0  0  0  0  0  0  0  0  0  0
   36.4681   28.4279  -19.1827 H   0  0  0  0  0  0  0  0  0  0  0  0
   35.5590   28.6725  -16.7029 H   0  0  0  0  0  0  0  0  0  0  0  0
   38.6035   28.5676  -14.7753 H   0  0  0  0  0  0  0  0  0  0  0  0
   43.9737   25.0508  -16.0389 H   0  0  0  0  0  0  0  0  0  0  0  0
   45.9546   24.6040  -14.5861 H   0  0  0  0  0  0  0  0  0  0  0  0
   45.9072   25.2527  -12.1744 H   0  0  0  0  0  0  0  0  0  0  0  0
   43.4670   25.8820  -10.3310 H   0  0  0  0  0  0  0  0  0  0  0  0
  1  2  2  0
  2  3  1  0
  3  4  1  0
  3  5  2  0
  5  6  1  0
  6  7  2  0
  7  8  1  0
  8  9  2  0
  9 10  1  0
 10 11  1  0
  9 12  1  0
 12 13  1  0
 13 14  1  0
 13 15  1  0
 12 16  2  0
  5 17  1  0
 17 18  1  0
 18 19  2  0
 19 20  1  0
 20 21  2  0
 21 22  1  0
 22 23  1  0
 22 24  2  0
 24  2  1  0
 16  6  1  0
 24 18  1  0
  4 25  1  0
  7 26  1  0
  8 27  1  0
 10 28  1  0
 10 29  1  0
 13 30  1  0
 16 31  1  0
 19 32  1  0
 20 33  1  0
 21 34  1  0
 23 35  1  0
M  END
>  <meeko>  (5) 
{"is_sidechain": [false], "free_energy": -6.732, "intermolecular_energy": -8.21, "internal_energy": 0.039}

$$$$
cand_019_out
     RDKit          3D

 35 37  0  0  0  0  0  0  0  0999 V2000
   38.9400   26.4230  -18.4560 O   0  0  0  0  0  0  0  0  0  0  0  0
   39.0670   26.8880  -17.3250 C   0  0  0  0  0  0  0  0  0  0  0  0
   40.2540   26.5550  -16.5040 C   0  0  0  0  0  0  0  0  0  0  0  0
   41.1840   25.6970  -17.0620 O   0  0  0  0  0  0  0  0  0  0  0  0
   40.3520   27.0860  -15.2720 C   0  0  0  0  0  0  0  0  0  0  0  0
   41.4850   26.8130  -14.3600 C   0  0  0  0  0  0  0  0  0  0  0  0
   41.4830   27.2520  -13.0320 C   0  0  0  0  0  0  0  0  0  0  0  0
   42.5540   26.9630  -12.1820 C   0  0  0  0  0  0  0  0  0  0  0  0
   43.6550   26.2240  -12.6380 C   0  0  0  0  0  0  0  0  0  0  0  0
   44.7910   25.9230  -11.6930 C   0  0  0  0  0  0  0  0  0  0  0  0
   45.8870   26.6960  -11.9340 F   0  0  0  0  0  0  0  0  0  0  0  0
   43.6620   25.7490  -13.9680 C   0  0  0  0  0  0  0  0  0  0  0  0
   44.8130   24.9280  -14.5040 C   0  0  0  0  0  0  0  0  0  0  0  0
   45.9800   25.6310  -14.5410 F   0  0  0  0  0  0  0  0  0  0  0  0
   45.0840   23.8250  -13.7450 F   0  0  0  0  0  0  0  0  0  0  0  0
   42.5760   26.0550  -14.8110 C   0  0  0  0  0  0  0  0  0  0  0  0
   39.3970   27.9250  -14.7100 O   0  0  0  0  0  0  0  0  0  0  0  0
   38.2900   28.2580  -15.4490 C   0  0  0  0  0  0  0  0  0  0  0  0
   37.3620   29.1110  -14.8510 C   0  0  0  0  0  0  0  0  0  0  0  0
   36.2120   29.4880  -15.5480 C   0  0  0  0  0  0  0  0  0  0  0  0
   35.9900   29.0120  -16.8410 C   0  0  0  0  0  0  0  0  0  0  0  0
   36.9170   28.1590  -17.4360 C   0  0  0  0  0  0  0  0  0  0  0  0
   36.6370   27.7300  -18.7040 O   0  0  0  0  0  0  0  0  0  0  0  0
   38.0670   27.7830  -16.7380 C   0  0  0  0  0  0  0  0  0  0  0  0
   41.2480   25.6170  -17.9940 H   0  0  0  0  0  0  0  0  0  0  0  0
   40.6286   27.8314  -12.6522 H   0  0  0  0  0  0  0  0  0  0  0  0
   42.5330   27.3199  -11.1417 H   0  0  0  0  0  0  0  0  0  0  0  0
   44.4507   26.1043  -10.6628 H   0  0  0  0  0  0  0  0  0  0  0  0
   45.0822   24.8729  -11.8430 H   0  0  0  0  0  0  0  0  0  0  0  0
   44.4781   24.6411  -15.5117 H   0  0  0  0  0  0  0  0  0  0  0  0
   42.5834   25.6906  -15.8489 H   0  0  0  0  0  0  0  0  0  0  0  0
   37.5359   29.4862  -13.8317 H   0  0  0  0  0  0  0  0  0  0  0  0
   35.4802   30.1610  -15.0772 H   0  0  0  0  0  0  0  0  0  0  0  0
   35.0843   29.3099  -17.3896 H   0  0  0  0  0  0  0  0  0  0  0  0
   35.8630   28.0280  -19.1390 H   0  0  0  0  0  0  0  0  0  0  0  0
  1  2  2  0
  2  3  1  0
  3  4  1  0
  3  5  2  0
  5  6  1  0
  6  7  2  0
  7  8  1  0
  8  9  2  0
  9 10  1  0
 10 11  1  0
  9 12  1  0
 12 13  1  0
 13 14  1  0
 13 15  1  0
 12 16  2  0
  5 17  1  0
 17 18  1  0
 18 19  2  0
 19 20  1  0
 20 21  2  0
 21 22  1  0
 22 23  1  0
 22 24  2  0
 24  2  1  0
 16  6  1  0
 24 18  1  0
  4 25  1  0
  7 26  1  0
  8 27  1  0
 10 28  1  0
 10 29  1  0
 13 30  1  0
 16 31  1  0
 19 32  1  0
 20 33  1  0
 21 34  1  0
 23 35  1  0
M  END
>  <meeko>  (6) 
{"is_sidechain": [false], "free_energy": -5.902, "intermolecular_energy": -7.464, "internal_energy": 0.318}

$$$$
cand_019_out
     RDKit          3D

 35 37  0  0  0  0  0  0  0  0999 V2000
   37.3470   29.5830  -14.2530 O   0  0  0  0  0  0  0  0  0  0  0  0
   38.1610   28.7700  -14.6850 C   0  0  0  0  0  0  0  0  0  0  0  0
   39.3520   28.4010  -13.8860 C   0  0  0  0  0  0  0  0  0  0  0  0
   39.5030   29.0220  -12.6590 O   0  0  0  0  0  0  0  0  0  0  0  0
   40.2180   27.5080  -14.3970 C   0  0  0  0  0  0  0  0  0  0  0  0
   41.4460   27.0750  -13.6950 C   0  0  0  0  0  0  0  0  0  0  0  0
   41.5330   27.0670  -12.2990 C   0  0  0  0  0  0  0  0  0  0  0  0
   42.6950   26.6330  -11.6570 C   0  0  0  0  0  0  0  0  0  0  0  0
   43.8030   26.1920  -12.3950 C   0  0  0  0  0  0  0  0  0  0  0  0
   45.0390   25.7230  -11.6700 C   0  0  0  0  0  0  0  0  0  0  0  0
   45.3270   24.4160  -11.9270 F   0  0  0  0  0  0  0  0  0  0  0  0
   43.7240   26.1680  -13.8040 C   0  0  0  0  0  0  0  0  0  0  0  0
   44.8810   25.6790  -14.6480 C   0  0  0  0  0  0  0  0  0  0  0  0
   46.0630   26.2570  -14.2920 F   0  0  0  0  0  0  0  0  0  0  0  0
   45.0930   24.3350  -14.5400 F   0  0  0  0  0  0  0  0  0  0  0  0
   42.5470   26.6150  -14.4340 C   0  0  0  0  0  0  0  0  0  0  0  0
   40.0710   26.9110  -15.6440 O   0  0  0  0  0  0  0  0  0  0  0  0
   38.9740   27.2270  -16.4050 C   0  0  0  0  0  0  0  0  0  0  0  0
   38.8610   26.5970  -17.6450 C   0  0  0  0  0  0  0  0  0  0  0  0
   37.7690   26.8750  -18.4700 C   0  0  0  0  0  0  0  0  0  0  0  0
   36.7910   27.7830  -18.0560 C   0  0  0  0  0  0  0  0  0  0  0  0
   36.9080   28.4100  -16.8180 C   0  0  0  0  0  0  0  0  0  0  0  0
   35.9150   29.2870  -16.4750 O   0  0  0  0  0  0  0  0  0  0  0  0
   38.0000   28.1310  -15.9930 C   0  0  0  0  0  0  0  0  0  0  0  0
   39.6230   28.5070  -11.8850 H   0  0  0  0  0  0  0  0  0  0  0  0
   40.6757   27.4067  -11.6994 H   0  0  0  0  0  0  0  0  0  0  0  0
   42.7417   26.6371  -10.5580 H   0  0  0  0  0  0  0  0  0  0  0  0
   45.8912   26.3417  -11.9878 H   0  0  0  0  0  0  0  0  0  0  0  0
   44.8517   25.8194  -10.5904 H   0  0  0  0  0  0  0  0  0  0  0  0
   44.5867   25.9500  -15.6727 H   0  0  0  0  0  0  0  0  0  0  0  0
   42.4888   26.6035  -15.5324 H   0  0  0  0  0  0  0  0  0  0  0  0
   39.6308   25.8826  -17.9721 H   0  0  0  0  0  0  0  0  0  0  0  0
   37.6787   26.3783  -19.4473 H   0  0  0  0  0  0  0  0  0  0  0  0
   35.9311   28.0020  -18.7061 H   0  0  0  0  0  0  0  0  0  0  0  0
   35.1730   28.9880  -15.9890 H   0  0  0  0  0  0  0  0  0  0  0  0
  1  2  2  0
  2  3  1  0
  3  4  1  0
  3  5  2  0
  5  6  1  0
  6  7  2  0
  7  8  1  0
  8  9  2  0
  9 10  1  0
 10 11  1  0
  9 12  1  0
 12 13  1  0
 13 14  1  0
 13 15  1  0
 12 16  2  0
  5 17  1  0
 17 18  1  0
 18 19  2  0
 19 20  1  0
 20 21  2  0
 21 22  1  0
 22 23  1  0
 22 24  2  0
 24  2  1  0
 16  6  1  0
 24 18  1  0
  4 25  1  0
  7 26  1  0
  8 27  1  0
 10 28  1  0
 10 29  1  0
 13 30  1  0
 16 31  1  0
 19 32  1  0
 20 33  1  0
 21 34  1  0
 23 35  1  0
M  END
>  <meeko>  (7) 
{"is_sidechain": [false], "free_energy": -5.75, "intermolecular_energy": -7.267, "internal_energy": 0.308}

$$$$
cand_019_out
     RDKit          3D

 35 37  0  0  0  0  0  0  0  0999 V2000
   37.6280   25.9250  -19.2350 O   0  0  0  0  0  0  0  0  0  0  0  0
   37.6480   26.6860  -18.2700 C   0  0  0  0  0  0  0  0  0  0  0  0
   38.6420   26.5020  -17.1880 C   0  0  0  0  0  0  0  0  0  0  0  0
   39.5170   25.4380  -17.3120 O   0  0  0  0  0  0  0  0  0  0  0  0
   38.6280   27.3570  -16.1500 C   0  0  0  0  0  0  0  0  0  0  0  0
   39.5640   27.2620  -15.0080 C   0  0  0  0  0  0  0  0  0  0  0  0
   39.2500   27.7910  -13.7520 C   0  0  0  0  0  0  0  0  0  0  0  0
   40.1400   27.6690  -12.6820 C   0  0  0  0  0  0  0  0  0  0  0  0
   41.3680   27.0110  -12.8390 C   0  0  0  0  0  0  0  0  0  0  0  0
   42.3010   26.8900  -11.6610 C   0  0  0  0  0  0  0  0  0  0  0  0
   41.6340   26.7890  -10.4770 F   0  0  0  0  0  0  0  0  0  0  0  0
   41.6900   26.4460  -14.0920 C   0  0  0  0  0  0  0  0  0  0  0  0
   42.9910   25.7050  -14.3100 C   0  0  0  0  0  0  0  0  0  0  0  0
   43.1050   25.2170  -15.5770 F   0  0  0  0  0  0  0  0  0  0  0  0
   44.0920   26.4920  -14.1280 F   0  0  0  0  0  0  0  0  0  0  0  0
   40.7830   26.5840  -15.1600 C   0  0  0  0  0  0  0  0  0  0  0  0
   37.7260   28.4070  -16.0220 O   0  0  0  0  0  0  0  0  0  0  0  0
   36.7970   28.6070  -17.0120 C   0  0  0  0  0  0  0  0  0  0  0  0
   35.9180   29.6780  -16.8480 C   0  0  0  0  0  0  0  0  0  0  0  0
   34.9480   29.9380  -17.8180 C   0  0  0  0  0  0  0  0  0  0  0  0
   34.8560   29.1260  -18.9510 C   0  0  0  0  0  0  0  0  0  0  0  0
   35.7360   28.0580  -19.1120 C   0  0  0  0  0  0  0  0  0  0  0  0
   35.5900   27.3050  -20.2450 O   0  0  0  0  0  0  0  0  0  0  0  0
   36.7060   27.8000  -18.1410 C   0  0  0  0  0  0  0  0  0  0  0  0
   39.8800   25.2250  -18.1500 H   0  0  0  0  0  0  0  0  0  0  0  0
   38.2910   28.3093  -13.6048 H   0  0  0  0  0  0  0  0  0  0  0  0
   39.8737   28.0949  -11.7034 H   0  0  0  0  0  0  0  0  0  0  0  0
   42.9226   25.9922  -11.7937 H   0  0  0  0  0  0  0  0  0  0  0  0
   42.9133   27.8030  -11.6236 H   0  0  0  0  0  0  0  0  0  0  0  0
   42.9567   24.8966  -13.5648 H   0  0  0  0  0  0  0  0  0  0  0  0
   41.0364   26.1493  -16.1382 H   0  0  0  0  0  0  0  0  0  0  0  0
   35.9891   30.3169  -15.9554 H   0  0  0  0  0  0  0  0  0  0  0  0
   34.2556   30.7831  -17.6899 H   0  0  0  0  0  0  0  0  0  0  0  0
   34.0905   29.3294  -19.7143 H   0  0  0  0  0  0  0  0  0  0  0  0
   35.6910   27.7010  -21.0870 H   0  0  0  0  0  0  0  0  0  0  0  0
  1  2  2  0
  2  3  1  0
  3  4  1  0
  3  5  2  0
  5  6  1  0
  6  7  2  0
  7  8  1  0
  8  9  2  0
  9 10  1  0
 10 11  1  0
  9 12  1  0
 12 13  1  0
 13 14  1  0
 13 15  1  0
 12 16  2  0
  5 17  1  0
 17 18  1  0
 18 19  2  0
 19 20  1  0
 20 21  2  0
 21 22  1  0
 22 23  1  0
 22 24  2  0
 24  2  1  0
 16  6  1  0
 24 18  1  0
  4 25  1  0
  7 26  1  0
  8 27  1  0
 10 28  1  0
 10 29  1  0
 13 30  1  0
 16 31  1  0
 19 32  1  0
 20 33  1  0
 21 34  1  0
 23 35  1  0
M  END
>  <meeko>  (8) 
{"is_sidechain": [false], "free_energy": -5.532, "intermolecular_energy": -6.84, "internal_energy": 0.15}

$$$$
cand_019_out
     RDKit          3D

 35 37  0  0  0  0  0  0  0  0999 V2000
   39.5790   26.3230  -17.1850 O   0  0  0  0  0  0  0  0  0  0  0  0
   40.1600   26.5590  -16.1270 C   0  0  0  0  0  0  0  0  0  0  0  0
   41.5050   25.9970  -15.8660 C   0  0  0  0  0  0  0  0  0  0  0  0
   42.0530   25.1950  -16.8500 O   0  0  0  0  0  0  0  0  0  0  0  0
   42.1030   26.2800  -14.6950 C   0  0  0  0  0  0  0  0  0  0  0  0
   43.4380   25.7640  -14.3210 C   0  0  0  0  0  0  0  0  0  0  0  0
   43.6710   24.4000  -14.1210 C   0  0  0  0  0  0  0  0  0  0  0  0
   44.9470   23.9330  -13.7910 C   0  0  0  0  0  0  0  0  0  0  0  0
   46.0240   24.8200  -13.6540 C   0  0  0  0  0  0  0  0  0  0  0  0
   47.3880   24.2820  -13.3050 C   0  0  0  0  0  0  0  0  0  0  0  0
   47.4990   23.9650  -11.9840 F   0  0  0  0  0  0  0  0  0  0  0  0
   45.8130   26.1970  -13.8780 C   0  0  0  0  0  0  0  0  0  0  0  0
   46.9460   27.1940  -13.7670 C   0  0  0  0  0  0  0  0  0  0  0  0
   47.5100   27.2030  -12.5270 F   0  0  0  0  0  0  0  0  0  0  0  0
   47.9750   26.9350  -14.6270 F   0  0  0  0  0  0  0  0  0  0  0  0
   44.5200   26.6500  -14.2050 C   0  0  0  0  0  0  0  0  0  0  0  0
   41.5300   27.0650  -13.7010 O   0  0  0  0  0  0  0  0  0  0  0  0
   40.2880   27.6050  -13.9160 C   0  0  0  0  0  0  0  0  0  0  0  0
   39.7540   28.3950  -12.8960 C   0  0  0  0  0  0  0  0  0  0  0  0
   38.4930   28.9740  -13.0510 C   0  0  0  0  0  0  0  0  0  0  0  0
   37.7650   28.7630  -14.2250 C   0  0  0  0  0  0  0  0  0  0  0  0
   38.3000   27.9750  -15.2400 C   0  0  0  0  0  0  0  0  0  0  0  0
   37.5340   27.8100  -16.3610 O   0  0  0  0  0  0  0  0  0  0  0  0
   39.5620   27.3960  -15.0850 C   0  0  0  0  0  0  0  0  0  0  0  0
   41.8020   25.3150  -17.7460 H   0  0  0  0  0  0  0  0  0  0  0  0
   42.8408   23.6859  -14.2245 H   0  0  0  0  0  0  0  0  0  0  0  0
   45.1078   22.8558  -13.6369 H   0  0  0  0  0  0  0  0  0  0  0  0
   47.5744   23.3773  -13.9023 H   0  0  0  0  0  0  0  0  0  0  0  0
   48.1250   25.0686  -13.5243 H   0  0  0  0  0  0  0  0  0  0  0  0
   46.4676   28.1558  -14.0038 H   0  0  0  0  0  0  0  0  0  0  0  0
   44.3544   27.7243  -14.3735 H   0  0  0  0  0  0  0  0  0  0  0  0
   40.3262   28.5610  -11.9713 H   0  0  0  0  0  0  0  0  0  0  0  0
   38.0721   29.5970  -12.2481 H   0  0  0  0  0  0  0  0  0  0  0  0
   36.7713   29.2187  -14.3467 H   0  0  0  0  0  0  0  0  0  0  0  0
   37.0900   28.5440  -16.7380 H   0  0  0  0  0  0  0  0  0  0  0  0
  1  2  2  0
  2  3  1  0
  3  4  1  0
  3  5  2  0
  5  6  1  0
  6  7  2  0
  7  8  1  0
  8  9  2  0
  9 10  1  0
 10 11  1  0
  9 12  1  0
 12 13  1  0
 13 14  1  0
 13 15  1  0
 12 16  2  0
  5 17  1  0
 17 18  1  0
 18 19  2  0
 19 20  1  0
 20 21  2  0
 21 22  1  0
 22 23  1  0
 22 24  2  0
 24  2  1  0
 16  6  1  0
 24 18  1  0
  4 25  1  0
  7 26  1  0
  8 27  1  0
 10 28  1  0
 10 29  1  0
 13 30  1  0
 16 31  1  0
 19 32  1  0
 20 33  1  0
 21 34  1  0
 23 35  1  0
M  END
>  <meeko>  (9) 
{"is_sidechain": [false], "free_energy": -5.093, "intermolecular_energy": -5.844, "internal_energy": -0.304}

$$$$
