cand_030_out
     RDKit          3D

 38 40  0  0  0  0  0  0  0  0999 V2000
   46.6520   24.6660  -14.0500 C   0  0  0  0  0  0  0  0  0  0  0  0
   45.4420   24.5070  -13.1420 C   0  0  0  0  0  0  0  0  0  0  0  0
   44.1930   25.1100  -13.7490 C   0  0  0  0  0  0  0  0  0  0  0  0
   43.4320   24.3170  -14.6250 C   0  0  0  0  0  0  0  0  0  0  0  0
   42.2720   24.8130  -15.2240 C   0  0  0  0  0  0  0  0  0  0  0  0
   41.8370   26.1160  -14.9620 C   0  0  0  0  0  0  0  0  0  0  0  0
   40.6180   26.6310  -15.6190 C   0  0  0  0  0  0  0  0  0  0  0  0
   39.8610   27.4510  -14.7900 O   0  0  0  0  0  0  0  0  0  0  0  0
   38.6990   27.9940  -15.2780 C   0  0  0  0  0  0  0  0  0  0  0  0
   37.9610   28.7970  -14.4070 C   0  0  0  0  0  0  0  0  0  0  0  0
   36.7700   29.3820  -14.8420 C   0  0  0  0  0  0  0  0  0  0  0  0
   36.3170   29.1650  -16.1450 C   0  0  0  0  0  0  0  0  0  0  0  0
   37.0550   28.3630  -17.0120 C   0  0  0  0  0  0  0  0  0  0  0  0
   36.5550   28.1930  -18.2730 O   0  0  0  0  0  0  0  0  0  0  0  0
   38.2470   27.7770  -16.5760 C   0  0  0  0  0  0  0  0  0  0  0  0
   39.0530   26.9280  -17.4550 C   0  0  0  0  0  0  0  0  0  0  0  0
   38.7260   26.6960  -18.6160 O   0  0  0  0  0  0  0  0  0  0  0  0
   40.2960   26.3480  -16.8950 C   0  0  0  0  0  0  0  0  0  0  0  0
   41.0580   25.5570  -17.7350 O   0  0  0  0  0  0  0  0  0  0  0  0
   42.6040   26.9160  -14.1030 C   0  0  0  0  0  0  0  0  0  0  0  0
   43.7810   26.4340  -13.4930 C   0  0  0  0  0  0  0  0  0  0  0  0
   44.5360   27.3480  -12.5530 C   0  0  0  0  0  0  0  0  0  0  0  0
   45.8870   27.2720  -12.7010 F   0  0  0  0  0  0  0  0  0  0  0  0
   44.2310   28.6680  -12.7140 F   0  0  0  0  0  0  0  0  0  0  0  0
   47.5575   24.7850  -13.4368 H   0  0  0  0  0  0  0  0  0  0  0  0
   46.7538   23.7735  -14.6849 H   0  0  0  0  0  0  0  0  0  0  0  0
   46.5198   25.5545  -14.6849 H   0  0  0  0  0  0  0  0  0  0  0  0
   45.2690   23.4351  -12.9656 H   0  0  0  0  0  0  0  0  0  0  0  0
   45.6518   25.0368  -12.2011 H   0  0  0  0  0  0  0  0  0  0  0  0
   43.7555   23.2884  -14.8425 H   0  0  0  0  0  0  0  0  0  0  0  0
   41.6953   24.1730  -15.9080 H   0  0  0  0  0  0  0  0  0  0  0  0
   38.3167   28.9686  -13.3803 H   0  0  0  0  0  0  0  0  0  0  0  0
   36.1873   30.0152  -14.1567 H   0  0  0  0  0  0  0  0  0  0  0  0
   35.3787   29.6268  -16.4861 H   0  0  0  0  0  0  0  0  0  0  0  0
   35.7410   28.5910  -18.5110 H   0  0  0  0  0  0  0  0  0  0  0  0
   40.6440   24.9080  -18.2690 H   0  0  0  0  0  0  0  0  0  0  0  0
   42.2792   27.9470  -13.8994 H   0  0  0  0  0  0  0  0  0  0  0  0
   44.2207   26.9887  -11.5623 H   0  0  0  0  0  0  0  0  0  0  0  0
  1  2  1  0
  2  3  1  0
  3  4  2  0
  4  5  1  0
  5  6  2  0
  6  7  1  0
  7  8  1  0
  8  9  1  0
  9 10  2  0
 10 11  1  0
 11 12  2  0
 12 13  1  0
 13 14  1  0
 13 15  2  0
 15 16  1  0
 16 17  2  0
 16 18  1  0
 18 19  1  0
  6 20  1  0
 20 21  2  0
 21 22  1  0
 22 23  1  0
 22 24  1  0
 21  3  1  0
 18  7  2  0
 15  9  1  0
  1 25  1  0
  1 26  1  0
  1 27  1  0
  2 28  1  0
  2 29  1  0
  4 30  1  0
  5 31  1  0
 10 32  1  0
 11 33  1  0
 12 34  1  0
 14 35  1  0
 19 36  1  0
 20 37  1  0
 22 38  1  0
M  END
>  <meeko>  (1) 
{"is_sidechain": [false], "free_energy": -8.028, "intermolecular_energy": -9.906, "internal_energy": 0.115}

$$$$
cand_030_out
     RDKit          3D

 38 40  0  0  0  0  0  0  0  0999 V2000
   46.4000   25.0110  -14.0060 C   0  0  0  0  0  0  0  0  0  0  0  0
   45.2020   24.9020  -13.0740 C   0  0  0  0  0  0  0  0  0  0  0  0
   43.9320   25.4110  -13.7200 C   0  0  0  0  0  0  0  0  0  0  0  0
   43.6430   24.9970  -15.0320 C   0  0  0  0  0  0  0  0  0  0  0  0
   42.4910   25.4350  -15.6890 C   0  0  0  0  0  0  0  0  0  0  0  0
   41.5910   26.2960  -15.0520 C   0  0  0  0  0  0  0  0  0  0  0  0
   40.3870   26.7630  -15.7680 C   0  0  0  0  0  0  0  0  0  0  0  0
   39.5830   27.5930  -14.9940 O   0  0  0  0  0  0  0  0  0  0  0  0
   38.4290   28.0940  -15.5410 C   0  0  0  0  0  0  0  0  0  0  0  0
   37.6440   28.9080  -14.7230 C   0  0  0  0  0  0  0  0  0  0  0  0
   36.4570   29.4540  -15.2180 C   0  0  0  0  0  0  0  0  0  0  0  0
   36.0560   29.1860  -16.5290 C   0  0  0  0  0  0  0  0  0  0  0  0
   36.8420   28.3720  -17.3430 C   0  0  0  0  0  0  0  0  0  0  0  0
   36.3910   28.1510  -18.6150 O   0  0  0  0  0  0  0  0  0  0  0  0
   38.0290   27.8260  -16.8460 C   0  0  0  0  0  0  0  0  0  0  0  0
   38.8830   26.9670  -17.6670 C   0  0  0  0  0  0  0  0  0  0  0  0
   38.6030   26.6900  -18.8310 O   0  0  0  0  0  0  0  0  0  0  0  0
   40.1160   26.4320  -17.0450 C   0  0  0  0  0  0  0  0  0  0  0  0
   40.9240   25.6310  -17.8300 O   0  0  0  0  0  0  0  0  0  0  0  0
   41.8860   26.7230  -13.7500 C   0  0  0  0  0  0  0  0  0  0  0  0
   43.0470   26.2970  -13.0720 C   0  0  0  0  0  0  0  0  0  0  0  0
   43.2770   26.7780  -11.6560 C   0  0  0  0  0  0  0  0  0  0  0  0
   42.1220   26.9970  -10.9690 F   0  0  0  0  0  0  0  0  0  0  0  0
   43.9880   25.9000  -10.8920 F   0  0  0  0  0  0  0  0  0  0  0  0
   47.3212   25.0948  -13.4107 H   0  0  0  0  0  0  0  0  0  0  0  0
   46.4538   24.1140  -14.6405 H   0  0  0  0  0  0  0  0  0  0  0  0
   46.2910   25.9029  -14.6405 H   0  0  0  0  0  0  0  0  0  0  0  0
   45.0616   23.8464  -12.7983 H   0  0  0  0  0  0  0  0  0  0  0  0
   45.4039   25.5217  -12.1879 H   0  0  0  0  0  0  0  0  0  0  0  0
   44.3355   24.3169  -15.5496 H   0  0  0  0  0  0  0  0  0  0  0  0
   42.2894   25.0998  -16.7171 H   0  0  0  0  0  0  0  0  0  0  0  0
   37.9592   29.1193  -13.6905 H   0  0  0  0  0  0  0  0  0  0  0  0
   35.8374   30.0958  -14.5745 H   0  0  0  0  0  0  0  0  0  0  0  0
   35.1216   29.6166  -16.9183 H   0  0  0  0  0  0  0  0  0  0  0  0
   36.8300   28.5450  -19.3420 H   0  0  0  0  0  0  0  0  0  0  0  0
   40.5820   25.2460  -18.6130 H   0  0  0  0  0  0  0  0  0  0  0  0
   41.1924   27.4097  -13.2427 H   0  0  0  0  0  0  0  0  0  0  0  0
   43.8363   27.7132  -11.8065 H   0  0  0  0  0  0  0  0  0  0  0  0
  1  2  1  0
  2  3  1  0
  3  4  2  0
  4  5  1  0
  5  6  2  0
  6  7  1  0
  7  8  1  0
  8  9  1  0
  9 10  2  0
 10 11  1  0
 11 12  2  0
 12 13  1  0
 13 14  1  0
 13 15  2  0
 15 16  1  0
 16 17  2  0
 16 18  1  0
 18 19  1  0
  6 20  1  0
 20 21  2  0
 21 22  1  0
 22 23  1  0
 22 24  1  0
 21  3  1  0
 18  7  2  0
 15  9  1  0
  1 25  1  0
  1 26  1  0
  1 27  1  0
  2 28  1  0
  2 29  1  0
  4 30  1  0
  5 31  1  0
 10 32  1  0
 11 33  1  0
 12 34  1  0
 14 35  1  0
 19 36  1  0
 20 37  1  0
 22 38  1  0
M  END
>  <meeko>  (2) 
{"is_sidechain": [false], "free_energy": -7.773, "intermolecular_energy": -9.954, "internal_energy": 0.479}

$$$$
cand_030_out
     RDKit          3D

 38 40  0  0  0  0  0  0  0  0999 V2000
   46.9860   24.7820  -14.4360 C   0  0  0  0  0  0  0  0  0  0  0  0
   45.8930   24.3320  -13.4790 C   0  0  0  0  0  0  0  0  0  0  0  0
   44.5940   25.0750  -13.7090 C   0  0  0  0  0  0  0  0  0  0  0  0
   43.6140   24.4640  -14.5110 C   0  0  0  0  0  0  0  0  0  0  0  0
   42.3970   25.0980  -14.7690 C   0  0  0  0  0  0  0  0  0  0  0  0
   42.1200   26.3580  -14.2290 C   0  0  0  0  0  0  0  0  0  0  0  0
   40.8340   27.0200  -14.5260 C   0  0  0  0  0  0  0  0  0  0  0  0
   40.3670   26.7470  -15.8070 O   0  0  0  0  0  0  0  0  0  0  0  0
   39.1810   27.3050  -16.2120 C   0  0  0  0  0  0  0  0  0  0  0  0
   38.7590   27.0180  -17.5110 C   0  0  0  0  0  0  0  0  0  0  0  0
   37.5590   27.5520  -17.9860 C   0  0  0  0  0  0  0  0  0  0  0  0
   36.7820   28.3720  -17.1630 C   0  0  0  0  0  0  0  0  0  0  0  0
   37.2070   28.6560  -15.8680 C   0  0  0  0  0  0  0  0  0  0  0  0
   36.3990   29.4650  -15.1160 O   0  0  0  0  0  0  0  0  0  0  0  0
   38.4090   28.1220  -15.3940 C   0  0  0  0  0  0  0  0  0  0  0  0
   38.8910   28.3960  -14.0390 C   0  0  0  0  0  0  0  0  0  0  0  0
   38.2620   29.1010  -13.2530 O   0  0  0  0  0  0  0  0  0  0  0  0
   40.1800   27.7880  -13.6360 C   0  0  0  0  0  0  0  0  0  0  0  0
   40.6230   28.0420  -12.3510 O   0  0  0  0  0  0  0  0  0  0  0  0
   43.1030   26.9760  -13.4430 C   0  0  0  0  0  0  0  0  0  0  0  0
   44.3410   26.3550  -13.1760 C   0  0  0  0  0  0  0  0  0  0  0  0
   45.3360   27.0740  -12.2920 C   0  0  0  0  0  0  0  0  0  0  0  0
   46.6050   27.0520  -12.7850 F   0  0  0  0  0  0  0  0  0  0  0  0
   45.0460   28.3940  -12.1060 F   0  0  0  0  0  0  0  0  0  0  0  0
   47.8530   25.1389  -13.8607 H   0  0  0  0  0  0  0  0  0  0  0  0
   47.2897   23.9358  -15.0697 H   0  0  0  0  0  0  0  0  0  0  0  0
   46.6059   25.5968  -15.0697 H   0  0  0  0  0  0  0  0  0  0  0  0
   45.7165   23.2558  -13.6228 H   0  0  0  0  0  0  0  0  0  0  0  0
   46.2299   24.5474  -12.4543 H   0  0  0  0  0  0  0  0  0  0  0  0
   43.8091   23.4709  -14.9420 H   0  0  0  0  0  0  0  0  0  0  0  0
   41.6483   24.6013  -15.4036 H   0  0  0  0  0  0  0  0  0  0  0  0
   39.3701   26.3727  -18.1592 H   0  0  0  0  0  0  0  0  0  0  0  0
   37.2249   27.3268  -19.0095 H   0  0  0  0  0  0  0  0  0  0  0  0
   35.8369   28.7920  -17.5376 H   0  0  0  0  0  0  0  0  0  0  0  0
   35.7130   29.0910  -14.5990 H   0  0  0  0  0  0  0  0  0  0  0  0
   40.3070   28.7920  -11.8860 H   0  0  0  0  0  0  0  0  0  0  0  0
   42.9032   27.9728  -13.0229 H   0  0  0  0  0  0  0  0  0  0  0  0
   45.2639   26.5178  -11.3457 H   0  0  0  0  0  0  0  0  0  0  0  0
  1  2  1  0
  2  3  1  0
  3  4  2  0
  4  5  1  0
  5  6  2  0
  6  7  1  0
  7  8  1  0
  8  9  1  0
  9 10  2  0
 10 11  1  0
 11 12  2  0
 12 13  1  0
 13 14  1  0
 13 15  2  0
 15 16  1  0
 16 17  2  0
 16 18  1  0
 18 19  1  0
  6 20  1  0
 20 21  2  0
 21 22  1  0
 22 23  1  0
 22 24  1  0
 21  3  1  0
 18  7  2  0
 15  9  1  0
  1 25  1  0
  1 26  1  0
  1 27  1  0
  2 28  1  0
  2 29  1  0
  4 30  1  0
  5 31  1  0
 10 32  1  0
 11 33  1  0
 12 34  1  0
 14 35  1  0
 19 36  1  0
 20 37  1  0
 22 38  1  0
M  END
>  <meeko>  (3) 
{"is_sidechain": [false], "free_energy": -7.14, "intermolecular_energy": -8.952, "internal_energy": 0.258}

$$$$
cand_030_out
     RDKit          3D

 38 40  0  0  0  0  0  0  0  0999 V2000
   36.7940   26.5430  -19.9750 C   0  0  0  0  0  0  0  0  0  0  0  0
   36.4830   27.4180  -18.7700 C   0  0  0  0  0  0  0  0  0  0  0  0
   37.5430   27.3030  -17.6960 C   0  0  0  0  0  0  0  0  0  0  0  0
   38.5590   26.3470  -17.8670 C   0  0  0  0  0  0  0  0  0  0  0  0
   39.5640   26.1850  -16.9100 C   0  0  0  0  0  0  0  0  0  0  0  0
   39.5850   26.9750  -15.7570 C   0  0  0  0  0  0  0  0  0  0  0  0
   40.6450   26.7770  -14.7480 C   0  0  0  0  0  0  0  0  0  0  0  0
   41.7880   26.1850  -15.2710 O   0  0  0  0  0  0  0  0  0  0  0  0
   42.8500   25.9420  -14.4360 C   0  0  0  0  0  0  0  0  0  0  0  0
   43.9700   25.3310  -15.0000 C   0  0  0  0  0  0  0  0  0  0  0  0
   45.0860   25.0570  -14.2060 C   0  0  0  0  0  0  0  0  0  0  0  0
   45.0820   25.3950  -12.8500 C   0  0  0  0  0  0  0  0  0  0  0  0
   43.9620   26.0050  -12.2910 C   0  0  0  0  0  0  0  0  0  0  0  0
   44.0250   26.3090  -10.9590 O   0  0  0  0  0  0  0  0  0  0  0  0
   42.8450   26.2770  -13.0860 C   0  0  0  0  0  0  0  0  0  0  0  0
   41.6480   26.9170  -12.5380 C   0  0  0  0  0  0  0  0  0  0  0  0
   41.5690   27.2500  -11.3580 O   0  0  0  0  0  0  0  0  0  0  0  0
   40.5150   27.1550  -13.4620 C   0  0  0  0  0  0  0  0  0  0  0  0
   39.3930   27.7710  -12.9400 O   0  0  0  0  0  0  0  0  0  0  0  0
   38.5620   27.9170  -15.5760 C   0  0  0  0  0  0  0  0  0  0  0  0
   37.5360   28.0920  -16.5270 C   0  0  0  0  0  0  0  0  0  0  0  0
   36.4860   29.1510  -16.2740 C   0  0  0  0  0  0  0  0  0  0  0  0
   36.4290   29.5500  -14.9730 F   0  0  0  0  0  0  0  0  0  0  0  0
   36.6820   30.2950  -16.9910 F   0  0  0  0  0  0  0  0  0  0  0  0
   37.1441   25.5581  -19.6324 H   0  0  0  0  0  0  0  0  0  0  0  0
   35.8851   26.4183  -20.5820 H   0  0  0  0  0  0  0  0  0  0  0  0
   37.5777   27.0199  -20.5820 H   0  0  0  0  0  0  0  0  0  0  0  0
   36.4227   28.4661  -19.0985 H   0  0  0  0  0  0  0  0  0  0  0  0
   35.5280   27.0791  -18.3420 H   0  0  0  0  0  0  0  0  0  0  0  0
   38.5630   25.7165  -18.7684 H   0  0  0  0  0  0  0  0  0  0  0  0
   40.3468   25.4280  -17.0655 H   0  0  0  0  0  0  0  0  0  0  0  0
   43.9743   25.0656  -16.0675 H   0  0  0  0  0  0  0  0  0  0  0  0
   45.9697   24.5743  -14.6489 H   0  0  0  0  0  0  0  0  0  0  0  0
   45.9617   25.1797  -12.2256 H   0  0  0  0  0  0  0  0  0  0  0  0
   44.1260   25.6250  -10.3270 H   0  0  0  0  0  0  0  0  0  0  0  0
   39.3300   28.7060  -12.9380 H   0  0  0  0  0  0  0  0  0  0  0  0
   38.5600   28.5364  -14.6670 H   0  0  0  0  0  0  0  0  0  0  0  0
   35.5571   28.6476  -16.5802 H   0  0  0  0  0  0  0  0  0  0  0  0
  1  2  1  0
  2  3  1  0
  3  4  2  0
  4  5  1  0
  5  6  2  0
  6  7  1  0
  7  8  1  0
  8  9  1  0
  9 10  2  0
 10 11  1  0
 11 12  2  0
 12 13  1  0
 13 14  1  0
 13 15  2  0
 15 16  1  0
 16 17  2  0
 16 18  1  0
 18 19  1  0
  6 20  1  0
 20 21  2  0
 21 22  1  0
 22 23  1  0
 22 24  1  0
 21  3  1  0
 18  7  2  0
 15  9  1  0
  1 25  1  0
  1 26  1  0
  1 27  1  0
  2 28  1  0
  2 29  1  0
  4 30  1  0
  5 31  1  0
 10 32  1  0
 11 33  1  0
 12 34  1  0
 14 35  1  0
 19 36  1  0
 20 37  1  0
 22 38  1  0
M  END
>  <meeko>  (4) 
{"is_sidechain": [false], "free_energy": -5.886, "intermolecular_energy": -7.062, "internal_energy": -0.085}

$$$$
cand_030_out
     RDKit          3D

 38 40  0  0  0  0  0  0  0  0999 V2000
   35.9640   30.3320  -18.1430 C   0  0  0  0  0  0  0  0  0  0  0  0
   35.6340   29.0960  -17.3190 C   0  0  0  0  0  0  0  0  0  0  0  0
   36.8360   28.5840  -16.5550 C   0  0  0  0  0  0  0  0  0  0  0  0
   37.1860   29.2310  -15.3580 C   0  0  0  0  0  0  0  0  0  0  0  0
   38.2870   28.8130  -14.6080 C   0  0  0  0  0  0  0  0  0  0  0  0
   39.0690   27.7330  -15.0300 C   0  0  0  0  0  0  0  0  0  0  0  0
   40.2410   27.3160  -14.2340 C   0  0  0  0  0  0  0  0  0  0  0  0
   41.2260   26.7030  -14.9990 O   0  0  0  0  0  0  0  0  0  0  0  0
   42.3680   26.2630  -14.3790 C   0  0  0  0  0  0  0  0  0  0  0  0
   43.3230   25.6380  -15.1820 C   0  0  0  0  0  0  0  0  0  0  0  0
   44.5100   25.1690  -14.6140 C   0  0  0  0  0  0  0  0  0  0  0  0
   44.7430   25.3270  -13.2450 C   0  0  0  0  0  0  0  0  0  0  0  0
   43.7880   25.9520  -12.4470 C   0  0  0  0  0  0  0  0  0  0  0  0
   44.0800   26.0740  -11.1160 O   0  0  0  0  0  0  0  0  0  0  0  0
   42.5990   26.4190  -13.0160 C   0  0  0  0  0  0  0  0  0  0  0  0
   41.5710   27.0820  -12.2120 C   0  0  0  0  0  0  0  0  0  0  0  0
   41.7040   27.2650  -11.0050 O   0  0  0  0  0  0  0  0  0  0  0  0
   40.3440   27.5340  -12.9090 C   0  0  0  0  0  0  0  0  0  0  0  0
   39.3820   28.1700  -12.1460 O   0  0  0  0  0  0  0  0  0  0  0  0
   38.7320   27.0970  -16.2330 C   0  0  0  0  0  0  0  0  0  0  0  0
   37.6270   27.5080  -17.0080 C   0  0  0  0  0  0  0  0  0  0  0  0
   37.3100   26.7500  -18.2770 C   0  0  0  0  0  0  0  0  0  0  0  0
   36.3310   27.3350  -19.0220 F   0  0  0  0  0  0  0  0  0  0  0  0
   38.3770   26.6280  -19.1200 F   0  0  0  0  0  0  0  0  0  0  0  0
   36.1884   31.1724  -17.4697 H   0  0  0  0  0  0  0  0  0  0  0  0
   36.8388   30.1269  -18.7775 H   0  0  0  0  0  0  0  0  0  0  0  0
   35.1033   30.5902  -18.7775 H   0  0  0  0  0  0  0  0  0  0  0  0
   34.8394   29.3495  -16.6018 H   0  0  0  0  0  0  0  0  0  0  0  0
   35.3096   28.3044  -18.0105 H   0  0  0  0  0  0  0  0  0  0  0  0
   36.5827   30.0808  -15.0059 H   0  0  0  0  0  0  0  0  0  0  0  0
   38.5419   29.3384  -13.6758 H   0  0  0  0  0  0  0  0  0  0  0  0
   43.1415   25.5149  -16.2599 H   0  0  0  0  0  0  0  0  0  0  0  0
   45.2628   24.6744  -15.2454 H   0  0  0  0  0  0  0  0  0  0  0  0
   45.6785   24.9585  -12.7989 H   0  0  0  0  0  0  0  0  0  0  0  0
   44.4560   25.3540  -10.6520 H   0  0  0  0  0  0  0  0  0  0  0  0
   38.7000   28.6570  -12.5660 H   0  0  0  0  0  0  0  0  0  0  0  0
   39.3462   26.2540  -16.5825 H   0  0  0  0  0  0  0  0  0  0  0  0
   36.9919   25.7677  -17.8977 H   0  0  0  0  0  0  0  0  0  0  0  0
  1  2  1  0
  2  3  1  0
  3  4  2  0
  4  5  1  0
  5  6  2  0
  6  7  1  0
  7  8  1  0
  8  9  1  0
  9 10  2  0
 10 11  1  0
 11 12  2  0
 12 13  1  0
 13 14  1  0
 13 15  2  0
 15 16  1  0
 16 17  2  0
 16 18  1  0
 18 19  1  0
  6 20  1  0
 20 21  2  0
 21 22  1  0
 22 23  1  0
 22 24  1  0
 21  3  1  0
 18  7  2  0
 15  9  1  0
  1 25  1  0
  1 26  1  0
  1 27  1  0
  2 28  1  0
  2 29  1  0
  4 30  1  0
  5 31  1  0
 10 32  1  0
 11 33  1  0
 12 34  1  0
 14 35  1  0
 19 36  1  0
 20 37  1  0
 22 38  1  0
M  END
>  <meeko>  (5) 
{"is_sidechain": [false], "free_energy": -5.703, "intermolecular_energy": -7.443, "internal_energy": 0.522}

$$$$
cand_030_out
     RDKit          3D

 38 40  0  0  0  0  0  0  0  0999 V2000
   46.1260   26.6050  -12.1920 C   0  0  0  0  0  0  0  0  0  0  0  0
   44.8490   25.8780  -11.7990 C   0  0  0  0  0  0  0  0  0  0  0  0
   43.7200   26.1440  -12.7720 C   0  0  0  0  0  0  0  0  0  0  0  0
   42.6890   27.0110  -12.3710 C   0  0  0  0  0  0  0  0  0  0  0  0
   41.6150   27.2940  -13.2180 C   0  0  0  0  0  0  0  0  0  0  0  0
   41.5430   26.7220  -14.4920 C   0  0  0  0  0  0  0  0  0  0  0  0
   40.3910   27.0190  -15.3670 C   0  0  0  0  0  0  0  0  0  0  0  0
   39.4650   27.8700  -14.7750 O   0  0  0  0  0  0  0  0  0  0  0  0
   38.3430   28.2230  -15.4820 C   0  0  0  0  0  0  0  0  0  0  0  0
   37.4320   29.0650  -14.8430 C   0  0  0  0  0  0  0  0  0  0  0  0
   36.2700   29.4650  -15.5070 C   0  0  0  0  0  0  0  0  0  0  0  0
   36.0200   29.0240  -16.8090 C   0  0  0  0  0  0  0  0  0  0  0  0
   36.9320   28.1840  -17.4440 C   0  0  0  0  0  0  0  0  0  0  0  0
   36.6250   27.7900  -18.7170 O   0  0  0  0  0  0  0  0  0  0  0  0
   38.0930   27.7830  -16.7780 C   0  0  0  0  0  0  0  0  0  0  0  0
   39.0770   26.9010  -17.4090 C   0  0  0  0  0  0  0  0  0  0  0  0
   38.9330   26.4770  -18.5530 O   0  0  0  0  0  0  0  0  0  0  0  0
   40.2710   26.5290  -16.6150 C   0  0  0  0  0  0  0  0  0  0  0  0
   41.2010   25.7060  -17.2220 O   0  0  0  0  0  0  0  0  0  0  0  0
   42.5610   25.8440  -14.8870 C   0  0  0  0  0  0  0  0  0  0  0  0
   43.6510   25.5410  -14.0450 C   0  0  0  0  0  0  0  0  0  0  0  0
   44.7260   24.6080  -14.5570 C   0  0  0  0  0  0  0  0  0  0  0  0
   45.8950   25.2450  -14.8460 F   0  0  0  0  0  0  0  0  0  0  0  0
   45.0620   23.6250  -13.6720 F   0  0  0  0  0  0  0  0  0  0  0  0
   46.6667   26.9128  -11.2849 H   0  0  0  0  0  0  0  0  0  0  0  0
   46.7618   25.9334  -12.7877 H   0  0  0  0  0  0  0  0  0  0  0  0
   45.8730   27.4945  -12.7877 H   0  0  0  0  0  0  0  0  0  0  0  0
   45.0494   24.7967  -11.7752 H   0  0  0  0  0  0  0  0  0  0  0  0
   44.5388   26.2482  -10.8107 H   0  0  0  0  0  0  0  0  0  0  0  0
   42.7285   27.4741  -11.3740 H   0  0  0  0  0  0  0  0  0  0  0  0
   40.8185   27.9731  -12.8798 H   0  0  0  0  0  0  0  0  0  0  0  0
   37.6286   29.4131  -13.8182 H   0  0  0  0  0  0  0  0  0  0  0  0
   35.5507   30.1281  -15.0041 H   0  0  0  0  0  0  0  0  0  0  0  0
   35.1049   29.3395  -17.3316 H   0  0  0  0  0  0  0  0  0  0  0  0
   35.9410   28.2220  -19.1890 H   0  0  0  0  0  0  0  0  0  0  0  0
   42.0790   26.0080  -17.3530 H   0  0  0  0  0  0  0  0  0  0  0  0
   42.5085   25.3779  -15.8820 H   0  0  0  0  0  0  0  0  0  0  0  0
   44.2664   24.1830  -15.4615 H   0  0  0  0  0  0  0  0  0  0  0  0
  1  2  1  0
  2  3  1  0
  3  4  2  0
  4  5  1  0
  5  6  2  0
  6  7  1  0
  7  8  1  0
  8  9  1  0
  9 10  2  0
 10 11  1  0
 11 12  2  0
 12 13  1  0
 13 14  1  0
 13 15  2  0
 15 16  1  0
 16 17  2  0
 16 18  1  0
 18 19  1  0
  6 20  1  0
 20 21  2  0
 21 22  1  0
 22 23  1  0
 22 24  1  0
 21  3  1  0
 18  7  2  0
 15  9  1  0
  1 25  1  0
  1 26  1  0
  1 27  1  0
  2 28  1  0
  2 29  1  0
  4 30  1  0
  5 31  1  0
 10 32  1  0
 11 33  1  0
 12 34  1  0
 14 35  1  0
 19 36  1  0
 20 37  1  0
 22 38  1  0
M  END
>  <meeko>  (6) 
{"is_sidechain": [false], "free_energy": -5.536, "intermolecular_energy": -7.06, "internal_energy": 0.345}

$$$$
cand_030_out
     RDKit          3D

 38 40  0  0  0  0  0  0  0  0999 V2000
   46.3540   26.3880  -12.4080 C   0  0  0  0  0  0  0  0  0  0  0  0
   45.1090   25.6780  -11.8970 C   0  0  0  0  0  0  0  0  0  0  0  0
   43.8620   26.1140  -12.6370 C   0  0  0  0  0  0  0  0  0  0  0  0
   43.0070   27.0360  -12.0090 C   0  0  0  0  0  0  0  0  0  0  0  0
   41.8380   27.4740  -12.6330 C   0  0  0  0  0  0  0  0  0  0  0  0
   41.4900   27.0080  -13.9050 C   0  0  0  0  0  0  0  0  0  0  0  0
   40.2400   27.4690  -14.5420 C   0  0  0  0  0  0  0  0  0  0  0  0
   40.0250   26.8980  -15.7910 O   0  0  0  0  0  0  0  0  0  0  0  0
   38.8990   27.2450  -16.4930 C   0  0  0  0  0  0  0  0  0  0  0  0
   38.7320   26.6610  -17.7490 C   0  0  0  0  0  0  0  0  0  0  0  0
   37.6050   26.9700  -18.5150 C   0  0  0  0  0  0  0  0  0  0  0  0
   36.6470   27.8600  -18.0250 C   0  0  0  0  0  0  0  0  0  0  0  0
   36.8160   28.4410  -16.7710 C   0  0  0  0  0  0  0  0  0  0  0  0
   35.8400   29.3030  -16.3520 O   0  0  0  0  0  0  0  0  0  0  0  0
   37.9450   28.1330  -16.0060 C   0  0  0  0  0  0  0  0  0  0  0  0
   38.1610   28.7210  -14.6820 C   0  0  0  0  0  0  0  0  0  0  0  0
   37.3610   29.5060  -14.1790 O   0  0  0  0  0  0  0  0  0  0  0  0
   39.3920   28.3350  -13.9550 C   0  0  0  0  0  0  0  0  0  0  0  0
   39.5840   28.8850  -12.7010 O   0  0  0  0  0  0  0  0  0  0  0  0
   42.3320   26.0750  -14.5250 C   0  0  0  0  0  0  0  0  0  0  0  0
   43.5150   25.6150  -13.9090 C   0  0  0  0  0  0  0  0  0  0  0  0
   44.3880   24.6330  -14.6580 C   0  0  0  0  0  0  0  0  0  0  0  0
   45.5770   25.1650  -15.0550 F   0  0  0  0  0  0  0  0  0  0  0  0
   44.7150   23.5280  -13.9280 F   0  0  0  0  0  0  0  0  0  0  0  0
   46.9566   26.7316  -11.5543 H   0  0  0  0  0  0  0  0  0  0  0  0
   46.9477   25.6926  -13.0196 H   0  0  0  0  0  0  0  0  0  0  0  0
   46.0578   27.2530  -13.0196 H   0  0  0  0  0  0  0  0  0  0  0  0
   45.2393   24.5938  -12.0292 H   0  0  0  0  0  0  0  0  0  0  0  0
   44.9819   25.9376  -10.8357 H   0  0  0  0  0  0  0  0  0  0  0  0
   43.2633   27.4184  -11.0099 H   0  0  0  0  0  0  0  0  0  0  0  0
   41.1834   28.1933  -12.1190 H   0  0  0  0  0  0  0  0  0  0  0  0
   39.4857   25.9590  -18.1353 H   0  0  0  0  0  0  0  0  0  0  0  0
   37.4722   26.5113  -19.5059 H   0  0  0  0  0  0  0  0  0  0  0  0
   35.7600   28.1018  -18.6289 H   0  0  0  0  0  0  0  0  0  0  0  0
   35.0730   28.9720  -15.9290 H   0  0  0  0  0  0  0  0  0  0  0  0
   40.3530   28.6720  -12.2100 H   0  0  0  0  0  0  0  0  0  0  0  0
   42.0630   25.6905  -15.5199 H   0  0  0  0  0  0  0  0  0  0  0  0
   43.7619   24.3643  -15.5216 H   0  0  0  0  0  0  0  0  0  0  0  0
  1  2  1  0
  2  3  1  0
  3  4  2  0
  4  5  1  0
  5  6  2  0
  6  7  1  0
  7  8  1  0
  8  9  1  0
  9 10  2  0
 10 11  1  0
 11 12  2  0
 12 13  1  0
 13 14  1  0
 13 15  2  0
 15 16  1  0
 16 17  2  0
 16 18  1  0
 18 19  1  0
  6 20  1  0
 20 21  2  0
 21 22  1  0
 22 23  1  0
 22 24  1  0
 21  3  1  0
 18  7  2  0
 15  9  1  0
  1 25  1  0
  1 26  1  0
  1 27  1  0
  2 28  1  0
  2 29  1  0
  4 30  1  0
  5 31  1  0
 10 32  1  0
 11 33  1  0
 12 34  1  0
 14 35  1  0
 19 36  1  0
 20 37  1  0
 22 38  1  0
M  END
>  <meeko>  (7) 
{"is_sidechain": [false], "free_energy": -5.146, "intermolecular_energy": -6.565, "internal_energy": 0.33}

$$$$
