cand_028_out
     RDKit          3D

 38 40  0  0  0  0  0  0  0  0999 V2000
   46.8940   26.9520  -13.4770 C   0  0  0  0  0  0  0  0  0  0  0  0
   45.5670   27.0630  -12.7400 C   0  0  0  0  0  0  0  0  0  0  0  0
   44.4660   26.3020  -13.4420 C   0  0  0  0  0  0  0  0  0  0  0  0
   43.2320   26.9520  -13.6480 C   0  0  0  0  0  0  0  0  0  0  0  0
   42.1550   26.3090  -14.2720 C   0  0  0  0  0  0  0  0  0  0  0  0
   40.8690   26.9980  -14.5130 C   0  0  0  0  0  0  0  0  0  0  0  0
   40.3530   26.7490  -15.7800 O   0  0  0  0  0  0  0  0  0  0  0  0
   39.1620   27.3290  -16.1370 C   0  0  0  0  0  0  0  0  0  0  0  0
   38.6900   27.0650  -17.4230 C   0  0  0  0  0  0  0  0  0  0  0  0
   37.4820   27.6230  -17.8490 C   0  0  0  0  0  0  0  0  0  0  0  0
   36.7480   28.4440  -16.9900 C   0  0  0  0  0  0  0  0  0  0  0  0
   37.2220   28.7050  -15.7080 C   0  0  0  0  0  0  0  0  0  0  0  0
   36.4530   29.5160  -14.9180 O   0  0  0  0  0  0  0  0  0  0  0  0
   38.4310   28.1480  -15.2820 C   0  0  0  0  0  0  0  0  0  0  0  0
   38.9660   28.3970  -13.9410 C   0  0  0  0  0  0  0  0  0  0  0  0
   38.3740   29.1020  -13.1270 O   0  0  0  0  0  0  0  0  0  0  0  0
   40.2580   27.7660  -13.5920 C   0  0  0  0  0  0  0  0  0  0  0  0
   40.7470   27.9980  -12.3190 O   0  0  0  0  0  0  0  0  0  0  0  0
   42.3310   24.9910  -14.7080 C   0  0  0  0  0  0  0  0  0  0  0  0
   43.5450   24.3300  -14.5060 C   0  0  0  0  0  0  0  0  0  0  0  0
   44.6180   24.9680  -13.8660 C   0  0  0  0  0  0  0  0  0  0  0  0
   45.9050   24.2130  -13.6790 C   0  0  0  0  0  0  0  0  0  0  0  0
   47.7141   26.8834  -12.7472 H   0  0  0  0  0  0  0  0  0  0  0  0
   46.8886   26.0512  -14.1082 H   0  0  0  0  0  0  0  0  0  0  0  0
   47.0383   27.8412  -14.1082 H   0  0  0  0  0  0  0  0  0  0  0  0
   45.6889   26.6564  -11.7252 H   0  0  0  0  0  0  0  0  0  0  0  0
   45.2816   28.1249  -12.7106 H   0  0  0  0  0  0  0  0  0  0  0  0
   43.1116   27.9918  -13.3098 H   0  0  0  0  0  0  0  0  0  0  0  0
   39.2677   26.4188  -18.1002 H   0  0  0  0  0  0  0  0  0  0  0  0
   37.1084   27.4154  -18.8626 H   0  0  0  0  0  0  0  0  0  0  0  0
   35.7972   28.8834  -17.3262 H   0  0  0  0  0  0  0  0  0  0  0  0
   36.8620   30.1330  -14.3420 H   0  0  0  0  0  0  0  0  0  0  0  0
   40.6900   27.3290  -11.6660 H   0  0  0  0  0  0  0  0  0  0  0  0
   41.5052   24.4703  -15.2148 H   0  0  0  0  0  0  0  0  0  0  0  0
   43.6614   23.2931  -14.8542 H   0  0  0  0  0  0  0  0  0  0  0  0
   46.1076   24.0942  -12.6044 H   0  0  0  0  0  0  0  0  0  0  0  0
   45.8200   23.2216  -14.1479 H   0  0  0  0  0  0  0  0  0  0  0  0
   46.7289   24.7710  -14.1479 H   0  0  0  0  0  0  0  0  0  0  0  0
  1  2  1  0
  2  3  1  0
  3  4  2  0
  4  5  1  0
  5  6  1  0
  6  7  1  0
  7  8  1  0
  8  9  2  0
  9 10  1  0
 10 11  2  0
 11 12  1  0
 12 13  1  0
 12 14  2  0
 14 15  1  0
 15 16  2  0
 15 17  1  0
 17 18  1  0
  5 19  2  0
 19 20  1  0
 20 21  2  0
 21 22  1  0
 21  3  1  0
 17  6  2  0
 14  8  1  0
  1 23  1  0
  1 24  1  0
  1 25  1  0
  2 26  1  0
  2 27  1  0
  4 28  1  0
  9 29  1  0
 10 30  1  0
 11 31  1  0
 13 32  1  0
 18 33  1  0
 19 34  1  0
 20 35  1  0
 22 36  1  0
 22 37  1  0
 22 38  1  0
M  END
>  <meeko>  (1) 
{"is_sidechain": [false], "free_energy": -7.719, "intermolecular_energy": -9.072, "internal_energy": 0.515}

$$$$
cand_028_out
     RDKit          3D

 38 40  0  0  0  0  0  0  0  0999 V2000
   47.7720   26.9870  -14.2970 C   0  0  0  0  0  0  0  0  0  0  0  0
   46.6350   27.1290  -13.2950 C   0  0  0  0  0  0  0  0  0  0  0  0
   45.4870   26.1960  -13.6090 C   0  0  0  0  0  0  0  0  0  0  0  0
   44.2100   26.7570  -13.8170 C   0  0  0  0  0  0  0  0  0  0  0  0
   43.0910   25.9600  -14.0920 C   0  0  0  0  0  0  0  0  0  0  0  0
   41.7560   26.5480  -14.3360 C   0  0  0  0  0  0  0  0  0  0  0  0
   41.2840   26.3000  -15.6200 O   0  0  0  0  0  0  0  0  0  0  0  0
   40.0550   26.7910  -15.9820 C   0  0  0  0  0  0  0  0  0  0  0  0
   39.6280   26.5310  -17.2840 C   0  0  0  0  0  0  0  0  0  0  0  0
   38.3850   27.0000  -17.7160 C   0  0  0  0  0  0  0  0  0  0  0  0
   37.5710   27.7300  -16.8460 C   0  0  0  0  0  0  0  0  0  0  0  0
   38.0000   27.9870  -15.5470 C   0  0  0  0  0  0  0  0  0  0  0  0
   37.1540   28.7050  -14.7470 O   0  0  0  0  0  0  0  0  0  0  0  0
   39.2450   27.5180  -15.1160 C   0  0  0  0  0  0  0  0  0  0  0  0
   39.7340   27.7660  -13.7580 C   0  0  0  0  0  0  0  0  0  0  0  0
   39.0720   28.3920  -12.9330 O   0  0  0  0  0  0  0  0  0  0  0  0
   41.0680   27.2320  -13.4040 C   0  0  0  0  0  0  0  0  0  0  0  0
   41.5150   27.4620  -12.1150 O   0  0  0  0  0  0  0  0  0  0  0  0
   43.2660   24.5740  -14.1730 C   0  0  0  0  0  0  0  0  0  0  0  0
   44.5240   24.0020  -13.9640 C   0  0  0  0  0  0  0  0  0  0  0  0
   45.6410   24.7980  -13.6720 C   0  0  0  0  0  0  0  0  0  0  0  0
   46.9730   24.1320  -13.4610 C   0  0  0  0  0  0  0  0  0  0  0  0
   48.7233   26.8682  -13.7577 H   0  0  0  0  0  0  0  0  0  0  0  0
   47.5959   26.1039  -14.9287 H   0  0  0  0  0  0  0  0  0  0  0  0
   47.8185   27.8863  -14.9287 H   0  0  0  0  0  0  0  0  0  0  0  0
   47.0162   26.8979  -12.2894 H   0  0  0  0  0  0  0  0  0  0  0  0
   46.2598   28.1616  -13.3492 H   0  0  0  0  0  0  0  0  0  0  0  0
   44.0893   27.8490  -13.7619 H   0  0  0  0  0  0  0  0  0  0  0  0
   40.2690   25.9575  -17.9697 H   0  0  0  0  0  0  0  0  0  0  0  0
   38.0467   26.7944  -18.7423 H   0  0  0  0  0  0  0  0  0  0  0  0
   36.5931   28.1008  -17.1870 H   0  0  0  0  0  0  0  0  0  0  0  0
   36.7210   29.4650  -15.0860 H   0  0  0  0  0  0  0  0  0  0  0  0
   41.8270   28.3110  -11.8710 H   0  0  0  0  0  0  0  0  0  0  0  0
   42.4055   23.9287  -14.4033 H   0  0  0  0  0  0  0  0  0  0  0  0
   44.6398   22.9101  -14.0296 H   0  0  0  0  0  0  0  0  0  0  0  0
   47.1676   24.0347  -12.3827 H   0  0  0  0  0  0  0  0  0  0  0  0
   46.9611   23.1338  -13.9230 H   0  0  0  0  0  0  0  0  0  0  0  0
   47.7644   24.7404  -13.9230 H   0  0  0  0  0  0  0  0  0  0  0  0
  1  2  1  0
  2  3  1  0
  3  4  2  0
  4  5  1  0
  5  6  1  0
  6  7  1  0
  7  8  1  0
  8  9  2  0
  9 10  1  0
 10 11  2  0
 11 12  1  0
 12 13  1  0
 12 14  2  0
 14 15  1  0
 15 16  2  0
 15 17  1  0
 17 18  1  0
  5 19  2  0
 19 20  1  0
 20 21  2  0
 21 22  1  0
 21  3  1  0
 17  6  2  0
 14  8  1  0
  1 23  1  0
  1 24  1  0
  1 25  1  0
  2 26  1  0
  2 27  1  0
  4 28  1  0
  9 29  1  0
 10 30  1  0
 11 31  1  0
 13 32  1  0
 18 33  1  0
 19 34  1  0
 20 35  1  0
 22 36  1  0
 22 37  1  0
 22 38  1  0
M  END
>  <meeko>  (2) 
{"is_sidechain": [false], "free_energy": -7.595, "intermolecular_energy": -8.5, "internal_energy": 0.088}

$$$$
cand_028_out
     RDKit          3D

 38 40  0  0  0  0  0  0  0  0999 V2000
   41.7910   26.9180  -10.9340 C   0  0  0  0  0  0  0  0  0  0  0  0
   43.1290   26.6070  -11.5890 C   0  0  0  0  0  0  0  0  0  0  0  0
   42.9700   26.2220  -13.0430 C   0  0  0  0  0  0  0  0  0  0  0  0
   41.8070   26.6400  -13.7200 C   0  0  0  0  0  0  0  0  0  0  0  0
   41.5750   26.3080  -15.0620 C   0  0  0  0  0  0  0  0  0  0  0  0
   40.3680   26.7670  -15.7810 C   0  0  0  0  0  0  0  0  0  0  0  0
   39.5620   27.5960  -15.0080 O   0  0  0  0  0  0  0  0  0  0  0  0
   38.4060   28.0940  -15.5540 C   0  0  0  0  0  0  0  0  0  0  0  0
   37.6200   28.9080  -14.7370 C   0  0  0  0  0  0  0  0  0  0  0  0
   36.4310   29.4510  -15.2310 C   0  0  0  0  0  0  0  0  0  0  0  0
   36.0290   29.1780  -16.5410 C   0  0  0  0  0  0  0  0  0  0  0  0
   36.8150   28.3660  -17.3530 C   0  0  0  0  0  0  0  0  0  0  0  0
   36.3640   28.1400  -18.6250 O   0  0  0  0  0  0  0  0  0  0  0  0
   38.0040   27.8220  -16.8570 C   0  0  0  0  0  0  0  0  0  0  0  0
   38.8600   26.9630  -17.6780 C   0  0  0  0  0  0  0  0  0  0  0  0
   38.5780   26.6840  -18.8410 O   0  0  0  0  0  0  0  0  0  0  0  0
   40.0950   26.4330  -17.0550 C   0  0  0  0  0  0  0  0  0  0  0  0
   40.9020   25.6330  -17.8440 O   0  0  0  0  0  0  0  0  0  0  0  0
   42.5420   25.5530  -15.7350 C   0  0  0  0  0  0  0  0  0  0  0  0
   43.6980   25.1260  -15.0770 C   0  0  0  0  0  0  0  0  0  0  0  0
   43.9220   25.4440  -13.7290 C   0  0  0  0  0  0  0  0  0  0  0  0
   45.1860   24.9640  -13.0700 C   0  0  0  0  0  0  0  0  0  0  0  0
   41.9034   26.8919   -9.8401 H   0  0  0  0  0  0  0  0  0  0  0  0
   41.4546   27.9183  -11.2442 H   0  0  0  0  0  0  0  0  0  0  0  0
   41.0479   26.1686  -11.2442 H   0  0  0  0  0  0  0  0  0  0  0  0
   43.7715   27.4976  -11.5253 H   0  0  0  0  0  0  0  0  0  0  0  0
   43.5782   25.7547  -11.0581 H   0  0  0  0  0  0  0  0  0  0  0  0
   41.0613   27.2429  -13.1810 H   0  0  0  0  0  0  0  0  0  0  0  0
   37.9361   29.1219  -13.7053 H   0  0  0  0  0  0  0  0  0  0  0  0
   35.8113   30.0936  -14.5883 H   0  0  0  0  0  0  0  0  0  0  0  0
   35.0925   29.6043  -16.9299 H   0  0  0  0  0  0  0  0  0  0  0  0
   35.5930   27.6250  -18.7630 H   0  0  0  0  0  0  0  0  0  0  0  0
   41.1310   24.7710  -17.5580 H   0  0  0  0  0  0  0  0  0  0  0  0
   42.3904   25.2930  -16.7930 H   0  0  0  0  0  0  0  0  0  0  0  0
   44.4442   24.5312  -15.6243 H   0  0  0  0  0  0  0  0  0  0  0  0
   45.0693   25.0083  -11.9771 H   0  0  0  0  0  0  0  0  0  0  0  0
   45.3877   23.9267  -13.3755 H   0  0  0  0  0  0  0  0  0  0  0  0
   46.0254   25.6060  -13.3755 H   0  0  0  0  0  0  0  0  0  0  0  0
  1  2  1  0
  2  3  1  0
  3  4  2  0
  4  5  1  0
  5  6  1  0
  6  7  1  0
  7  8  1  0
  8  9  2  0
  9 10  1  0
 10 11  2  0
 11 12  1  0
 12 13  1  0
 12 14  2  0
 14 15  1  0
 15 16  2  0
 15 17  1  0
 17 18  1  0
  5 19  2  0
 19 20  1  0
 20 21  2  0
 21 22  1  0
 21  3  1  0
 17  6  2  0
 14  8  1  0
  1 23  1  0
  1 24  1  0
  1 25  1  0
  2 26  1  0
  2 27  1  0
  4 28  1  0
  9 29  1  0
 10 30  1  0
 11 31  1  0
 13 32  1  0
 18 33  1  0
 19 34  1  0
 20 35  1  0
 22 36  1  0
 22 37  1  0
 22 38  1  0
M  END
>  <meeko>  (3) 
{"is_sidechain": [false], "free_energy": -7.434, "intermolecular_energy": -8.46, "internal_energy": 0.237}

$$$$
cand_028_out
     RDKit          3D

 38 40  0  0  0  0  0  0  0  0999 V2000
   46.5650   26.9530  -13.4450 C   0  0  0  0  0  0  0  0  0  0  0  0
   45.1230   27.2590  -13.0660 C   0  0  0  0  0  0  0  0  0  0  0  0
   44.1510   26.3070  -13.7250 C   0  0  0  0  0  0  0  0  0  0  0  0
   42.9720   26.8380  -14.2850 C   0  0  0  0  0  0  0  0  0  0  0  0
   42.0110   26.0210  -14.8950 C   0  0  0  0  0  0  0  0  0  0  0  0
   40.7870   26.5790  -15.5060 C   0  0  0  0  0  0  0  0  0  0  0  0
   40.0730   27.3950  -14.6350 O   0  0  0  0  0  0  0  0  0  0  0  0
   38.9120   27.9800  -15.0740 C   0  0  0  0  0  0  0  0  0  0  0  0
   38.2210   28.7770  -14.1620 C   0  0  0  0  0  0  0  0  0  0  0  0
   37.0330   29.4040  -14.5450 C   0  0  0  0  0  0  0  0  0  0  0  0
   36.5360   29.2320  -15.8390 C   0  0  0  0  0  0  0  0  0  0  0  0
   37.2290   28.4360  -16.7470 C   0  0  0  0  0  0  0  0  0  0  0  0
   36.6880   28.3110  -17.9980 O   0  0  0  0  0  0  0  0  0  0  0  0
   38.4170   27.8080  -16.3630 C   0  0  0  0  0  0  0  0  0  0  0  0
   39.1760   26.9620  -17.2870 C   0  0  0  0  0  0  0  0  0  0  0  0
   38.8080   26.7690  -18.4430 O   0  0  0  0  0  0  0  0  0  0  0  0
   40.4190   26.3380  -16.7780 C   0  0  0  0  0  0  0  0  0  0  0  0
   41.1340   25.5510  -17.6630 O   0  0  0  0  0  0  0  0  0  0  0  0
   42.2530   24.6440  -14.9540 C   0  0  0  0  0  0  0  0  0  0  0  0
   43.4150   24.0990  -14.3990 C   0  0  0  0  0  0  0  0  0  0  0  0
   44.3670   24.9160  -13.7730 C   0  0  0  0  0  0  0  0  0  0  0  0
   45.6030   24.2800  -13.1970 C   0  0  0  0  0  0  0  0  0  0  0  0
   47.1650   26.8257  -12.5319 H   0  0  0  0  0  0  0  0  0  0  0  0
   46.5996   26.0275  -14.0385 H   0  0  0  0  0  0  0  0  0  0  0  0
   46.9725   27.7847  -14.0385 H   0  0  0  0  0  0  0  0  0  0  0  0
   45.0172   27.1755  -11.9743 H   0  0  0  0  0  0  0  0  0  0  0  0
   44.8892   28.2769  -13.4113 H   0  0  0  0  0  0  0  0  0  0  0  0
   42.8014   27.9238  -14.2421 H   0  0  0  0  0  0  0  0  0  0  0  0
   38.6109   28.9118  -13.1423 H   0  0  0  0  0  0  0  0  0  0  0  0
   36.4881   30.0341  -13.8266 H   0  0  0  0  0  0  0  0  0  0  0  0
   35.5994   29.7242  -16.1399 H   0  0  0  0  0  0  0  0  0  0  0  0
   35.9770   27.7180  -18.1430 H   0  0  0  0  0  0  0  0  0  0  0  0
   42.0700   25.5560  -17.6430 H   0  0  0  0  0  0  0  0  0  0  0  0
   41.5214   23.9833  -15.4421 H   0  0  0  0  0  0  0  0  0  0  0  0
   43.5846   23.0136  -14.4544 H   0  0  0  0  0  0  0  0  0  0  0  0
   45.5512   24.3067  -12.0985 H   0  0  0  0  0  0  0  0  0  0  0  0
   45.6698   23.2356  -13.5357 H   0  0  0  0  0  0  0  0  0  0  0  0
   46.4917   24.8328  -13.5357 H   0  0  0  0  0  0  0  0  0  0  0  0
  1  2  1  0
  2  3  1  0
  3  4  2  0
  4  5  1  0
  5  6  1  0
  6  7  1  0
  7  8  1  0
  8  9  2  0
  9 10  1  0
 10 11  2  0
 11 12  1  0
 12 13  1  0
 12 14  2  0
 14 15  1  0
 15 16  2  0
 15 17  1  0
 17 18  1  0
  5 19  2  0
 19 20  1  0
 20 21  2  0
 21 22  1  0
 21  3  1  0
 17  6  2  0
 14  8  1  0
  1 23  1  0
  1 24  1  0
  1 25  1  0
  2 26  1  0
  2 27  1  0
  4 28  1  0
  9 29  1  0
 10 30  1  0
 11 31  1  0
 13 32  1  0
 18 33  1  0
 19 34  1  0
 20 35  1  0
 22 36  1  0
 22 37  1  0
 22 38  1  0
M  END
>  <meeko>  (4) 
{"is_sidechain": [false], "free_energy": -7.051, "intermolecular_energy": -8.327, "internal_energy": 0.554}

$$$$
cand_028_out
     RDKit          3D

 38 40  0  0  0  0  0  0  0  0999 V2000
   38.4460   26.6240  -19.1430 C   0  0  0  0  0  0  0  0  0  0  0  0
   37.2010   26.9780  -18.3430 C   0  0  0  0  0  0  0  0  0  0  0  0
   37.5370   27.7560  -17.0910 C   0  0  0  0  0  0  0  0  0  0  0  0
   38.6020   27.3010  -16.2880 C   0  0  0  0  0  0  0  0  0  0  0  0
   38.9630   27.9530  -15.1010 C   0  0  0  0  0  0  0  0  0  0  0  0
   40.0970   27.4920  -14.2720 C   0  0  0  0  0  0  0  0  0  0  0  0
   41.1060   26.8960  -15.0210 O   0  0  0  0  0  0  0  0  0  0  0  0
   42.2190   26.4210  -14.3750 C   0  0  0  0  0  0  0  0  0  0  0  0
   43.1980   25.8170  -15.1640 C   0  0  0  0  0  0  0  0  0  0  0  0
   44.3580   25.3140  -14.5690 C   0  0  0  0  0  0  0  0  0  0  0  0
   44.5380   25.4150  -13.1880 C   0  0  0  0  0  0  0  0  0  0  0  0
   43.5580   26.0180  -12.4040 C   0  0  0  0  0  0  0  0  0  0  0  0
   43.7980   26.0850  -11.0580 O   0  0  0  0  0  0  0  0  0  0  0  0
   42.3970   26.5210  -12.9990 C   0  0  0  0  0  0  0  0  0  0  0  0
   41.3430   27.1630  -12.2110 C   0  0  0  0  0  0  0  0  0  0  0  0
   41.4310   27.2960  -10.9930 O   0  0  0  0  0  0  0  0  0  0  0  0
   40.1500   27.6550  -12.9380 C   0  0  0  0  0  0  0  0  0  0  0  0
   39.1670   28.2700  -12.1850 O   0  0  0  0  0  0  0  0  0  0  0  0
   38.2450   29.0950  -14.7270 C   0  0  0  0  0  0  0  0  0  0  0  0
   37.1830   29.5570  -15.5090 C   0  0  0  0  0  0  0  0  0  0  0  0
   36.8110   28.8930  -16.6870 C   0  0  0  0  0  0  0  0  0  0  0  0
   35.6630   29.4350  -17.4950 C   0  0  0  0  0  0  0  0  0  0  0  0
   39.2705   26.3896  -18.4536 H   0  0  0  0  0  0  0  0  0  0  0  0
   38.2381   25.7494  -19.7769 H   0  0  0  0  0  0  0  0  0  0  0  0
   38.7294   27.4772  -19.7769 H   0  0  0  0  0  0  0  0  0  0  0  0
   36.5354   27.5872  -18.9722 H   0  0  0  0  0  0  0  0  0  0  0  0
   36.7124   26.0401  -18.0404 H   0  0  0  0  0  0  0  0  0  0  0  0
   39.1654   26.4097  -16.6014 H   0  0  0  0  0  0  0  0  0  0  0  0
   43.0572   25.7368  -16.2520 H   0  0  0  0  0  0  0  0  0  0  0  0
   45.1310   24.8375  -15.1898 H   0  0  0  0  0  0  0  0  0  0  0  0
   45.4517   25.0192  -12.7206 H   0  0  0  0  0  0  0  0  0  0  0  0
   44.4730   25.5590  -10.6770 H   0  0  0  0  0  0  0  0  0  0  0  0
   38.2740   28.2420  -12.4660 H   0  0  0  0  0  0  0  0  0  0  0  0
   38.5195   29.6341  -13.8083 H   0  0  0  0  0  0  0  0  0  0  0  0
   36.6304   30.4551  -15.1959 H   0  0  0  0  0  0  0  0  0  0  0  0
   34.8797   29.8048  -16.8170 H   0  0  0  0  0  0  0  0  0  0  0  0
   36.0185   30.2604  -18.1293 H   0  0  0  0  0  0  0  0  0  0  0  0
   35.2516   28.6360  -18.1293 H   0  0  0  0  0  0  0  0  0  0  0  0
  1  2  1  0
  2  3  1  0
  3  4  2  0
  4  5  1  0
  5  6  1  0
  6  7  1  0
  7  8  1  0
  8  9  2  0
  9 10  1  0
 10 11  2  0
 11 12  1  0
 12 13  1  0
 12 14  2  0
 14 15  1  0
 15 16  2  0
 15 17  1  0
 17 18  1  0
  5 19  2  0
 19 20  1  0
 20 21  2  0
 21 22  1  0
 21  3  1  0
 17  6  2  0
 14  8  1  0
  1 23  1  0
  1 24  1  0
  1 25  1  0
  2 26  1  0
  2 27  1  0
  4 28  1  0
  9 29  1  0
 10 30  1  0
 11 31  1  0
 13 32  1  0
 18 33  1  0
 19 34  1  0
 20 35  1  0
 22 36  1  0
 22 37  1  0
 22 38  1  0
M  END
>  <meeko>  (5) 
{"is_sidechain": [false], "free_energy": -6.961, "intermolecular_energy": -7.69, "internal_energy": 0.023}

$$$$
cand_028_out
     RDKit          3D

 38 40  0  0  0  0  0  0  0  0999 V2000
   46.1510   25.4080  -14.1790 C   0  0  0  0  0  0  0  0  0  0  0  0
   44.7980   24.7380  -14.3650 C   0  0  0  0  0  0  0  0  0  0  0  0
   43.6670   25.5960  -13.8450 C   0  0  0  0  0  0  0  0  0  0  0  0
   42.6050   25.9020  -14.7200 C   0  0  0  0  0  0  0  0  0  0  0  0
   41.5290   26.7080  -14.3220 C   0  0  0  0  0  0  0  0  0  0  0  0
   40.4020   27.0080  -15.2300 C   0  0  0  0  0  0  0  0  0  0  0  0
   39.4520   27.8440  -14.6530 O   0  0  0  0  0  0  0  0  0  0  0  0
   38.3500   28.2020  -15.3870 C   0  0  0  0  0  0  0  0  0  0  0  0
   37.4160   29.0290  -14.7640 C   0  0  0  0  0  0  0  0  0  0  0  0
   36.2720   29.4340  -15.4560 C   0  0  0  0  0  0  0  0  0  0  0  0
   36.0630   29.0110  -16.7710 C   0  0  0  0  0  0  0  0  0  0  0  0
   36.9980   28.1860  -17.3900 C   0  0  0  0  0  0  0  0  0  0  0  0
   36.7320   27.8090  -18.6790 O   0  0  0  0  0  0  0  0  0  0  0  0
   38.1420   27.7800  -16.6960 C   0  0  0  0  0  0  0  0  0  0  0  0
   39.1490   26.9130  -17.3110 C   0  0  0  0  0  0  0  0  0  0  0  0
   39.0400   26.5060  -18.4650 O   0  0  0  0  0  0  0  0  0  0  0  0
   40.3200   26.5360  -16.4870 C   0  0  0  0  0  0  0  0  0  0  0  0
   41.2720   25.7270  -17.0820 O   0  0  0  0  0  0  0  0  0  0  0  0
   41.5190   27.2010  -13.0120 C   0  0  0  0  0  0  0  0  0  0  0  0
   42.5670   26.9120  -12.1340 C   0  0  0  0  0  0  0  0  0  0  0  0
   43.6510   26.1200  -12.5380 C   0  0  0  0  0  0  0  0  0  0  0  0
   44.7500   25.8350  -11.5510 C   0  0  0  0  0  0  0  0  0  0  0  0
   46.3635   25.5132  -13.1049 H   0  0  0  0  0  0  0  0  0  0  0  0
   46.9325   24.7928  -14.6488 H   0  0  0  0  0  0  0  0  0  0  0  0
   46.1354   26.4025  -14.6488 H   0  0  0  0  0  0  0  0  0  0  0  0
   44.6383   24.5509  -15.4372 H   0  0  0  0  0  0  0  0  0  0  0  0
   44.8023   23.7976  -13.7943 H   0  0  0  0  0  0  0  0  0  0  0  0
   42.6209   25.4975  -15.7428 H   0  0  0  0  0  0  0  0  0  0  0  0
   37.5798   29.3622  -13.7286 H   0  0  0  0  0  0  0  0  0  0  0  0
   35.5351   30.0866  -14.9650 H   0  0  0  0  0  0  0  0  0  0  0  0
   35.1619   29.3290  -17.3159 H   0  0  0  0  0  0  0  0  0  0  0  0
   36.5320   28.4590  -19.3240 H   0  0  0  0  0  0  0  0  0  0  0  0
   42.1480   26.0390  -17.1960 H   0  0  0  0  0  0  0  0  0  0  0  0
   40.6779   27.8221  -12.6703 H   0  0  0  0  0  0  0  0  0  0  0  0
   42.5410   27.3122  -11.1097 H   0  0  0  0  0  0  0  0  0  0  0  0
   44.3592   25.9363  -10.5278 H   0  0  0  0  0  0  0  0  0  0  0  0
   45.1217   24.8107  -11.7018 H   0  0  0  0  0  0  0  0  0  0  0  0
   45.5726   26.5495  -11.7018 H   0  0  0  0  0  0  0  0  0  0  0  0
  1  2  1  0
  2  3  1  0
  3  4  2  0
  4  5  1  0
  5  6  1  0
  6  7  1  0
  7  8  1  0
  8  9  2  0
  9 10  1  0
 10 11  2  0
 11 12  1  0
 12 13  1  0
 12 14  2  0
 14 15  1  0
 15 16  2  0
 15 17  1  0
 17 18  1  0
  5 19  2  0
 19 20  1  0
 20 21  2  0
 21 22  1  0
 21  3  1  0
 17  6  2  0
 14  8  1  0
  1 23  1  0
  1 24  1  0
  1 25  1  0
  2 26  1  0
  2 27  1  0
  4 28  1  0
  9 29  1  0
 10 30  1  0
 11 31  1  0
 13 32  1  0
 18 33  1  0
 19 34  1  0
 20 35  1  0
 22 36  1  0
 22 37  1  0
 22 38  1  0
M  END
>  <meeko>  (6) 
{"is_sidechain": [false], "free_energy": -6.836, "intermolecular_energy": -8.244, "internal_energy": 0.724}

$$$$
cand_028_out
     RDKit          3D

 38 40  0  0  0  0  0  0  0  0999 V2000
   36.4750   29.4640  -14.6380 C   0  0  0  0  0  0  0  0  0  0  0  0
   36.4910   29.0780  -16.1100 C   0  0  0  0  0  0  0  0  0  0  0  0
   37.5820   28.0780  -16.4200 C   0  0  0  0  0  0  0  0  0  0  0  0
   38.6000   27.8850  -15.4640 C   0  0  0  0  0  0  0  0  0  0  0  0
   39.6580   26.9920  -15.6840 C   0  0  0  0  0  0  0  0  0  0  0  0
   40.7120   26.7690  -14.6710 C   0  0  0  0  0  0  0  0  0  0  0  0
   41.8580   26.1890  -15.2040 O   0  0  0  0  0  0  0  0  0  0  0  0
   42.9160   25.9250  -14.3720 C   0  0  0  0  0  0  0  0  0  0  0  0
   44.0390   25.3280  -14.9470 C   0  0  0  0  0  0  0  0  0  0  0  0
   45.1530   25.0350  -14.1560 C   0  0  0  0  0  0  0  0  0  0  0  0
   45.1430   25.3370  -12.7930 C   0  0  0  0  0  0  0  0  0  0  0  0
   44.0210   25.9330  -12.2230 C   0  0  0  0  0  0  0  0  0  0  0  0
   44.0790   26.2040  -10.8830 O   0  0  0  0  0  0  0  0  0  0  0  0
   42.9070   26.2250  -13.0140 C   0  0  0  0  0  0  0  0  0  0  0  0
   41.7070   26.8510  -12.4550 C   0  0  0  0  0  0  0  0  0  0  0  0
   41.6250   27.1540  -11.2670 O   0  0  0  0  0  0  0  0  0  0  0  0
   40.5780   27.1120  -13.3770 C   0  0  0  0  0  0  0  0  0  0  0  0
   39.4560   27.7160  -12.8400 O   0  0  0  0  0  0  0  0  0  0  0  0
   39.6810   26.2720  -16.8830 C   0  0  0  0  0  0  0  0  0  0  0  0
   38.6820   26.4560  -17.8440 C   0  0  0  0  0  0  0  0  0  0  0  0
   37.6330   27.3620  -17.6310 C   0  0  0  0  0  0  0  0  0  0  0  0
   36.5810   27.5180  -18.6950 C   0  0  0  0  0  0  0  0  0  0  0  0
   36.5127   28.5547  -14.0201 H   0  0  0  0  0  0  0  0  0  0  0  0
   37.3477   30.0953  -14.4150 H   0  0  0  0  0  0  0  0  0  0  0  0
   35.5530   30.0209  -14.4150 H   0  0  0  0  0  0  0  0  0  0  0  0
   35.5185   28.6357  -16.3720 H   0  0  0  0  0  0  0  0  0  0  0  0
   36.6853   29.9870  -16.6982 H   0  0  0  0  0  0  0  0  0  0  0  0
   38.5632   28.4499  -14.5208 H   0  0  0  0  0  0  0  0  0  0  0  0
   44.0471   25.0887  -16.0206 H   0  0  0  0  0  0  0  0  0  0  0  0
   46.0393   24.5656  -14.6080 H   0  0  0  0  0  0  0  0  0  0  0  0
   46.0197   25.1046  -12.1706 H   0  0  0  0  0  0  0  0  0  0  0  0
   44.5660   26.9430  -10.5750 H   0  0  0  0  0  0  0  0  0  0  0  0
   38.8370   27.2070  -12.3530 H   0  0  0  0  0  0  0  0  0  0  0  0
   40.4928   25.5541  -17.0718 H   0  0  0  0  0  0  0  0  0  0  0  0
   38.7195   25.8814  -18.7812 H   0  0  0  0  0  0  0  0  0  0  0  0
   35.5990   27.6636  -18.2212 H   0  0  0  0  0  0  0  0  0  0  0  0
   36.8191   28.3907  -19.3209 H   0  0  0  0  0  0  0  0  0  0  0  0
   36.5556   26.6138  -19.3209 H   0  0  0  0  0  0  0  0  0  0  0  0
  1  2  1  0
  2  3  1  0
  3  4  2  0
  4  5  1  0
  5  6  1  0
  6  7  1  0
  7  8  1  0
  8  9  2  0
  9 10  1  0
 10 11  2  0
 11 12  1  0
 12 13  1  0
 12 14  2  0
 14 15  1  0
 15 16  2  0
 15 17  1  0
 17 18  1  0
  5 19  2  0
 19 20  1  0
 20 21  2  0
 21 22  1  0
 21  3  1  0
 17  6  2  0
 14  8  1  0
  1 23  1  0
  1 24  1  0
  1 25  1  0
  2 26  1  0
  2 27  1  0
  4 28  1  0
  9 29  1  0
 10 30  1  0
 11 31  1  0
 13 32  1  0
 18 33  1  0
 19 34  1  0
 20 35  1  0
 22 36  1  0
 22 37  1  0
 22 38  1  0
M  END
>  <meeko>  (7) 
{"is_sidechain": [false], "free_energy": -6.733, "intermolecular_energy": -7.494, "internal_energy": 0.094}

$$$$
cand_028_out
     RDKit          3D

 38 40  0  0  0  0  0  0  0  0999 V2000
   45.7440   25.3150  -14.2470 C   0  0  0  0  0  0  0  0  0  0  0  0
   44.3100   24.9360  -14.5870 C   0  0  0  0  0  0  0  0  0  0  0  0
   43.3090   25.7640  -13.8140 C   0  0  0  0  0  0  0  0  0  0  0  0
   42.1660   26.2340  -14.4920 C   0  0  0  0  0  0  0  0  0  0  0  0
   41.2020   27.0240  -13.8530 C   0  0  0  0  0  0  0  0  0  0  0  0
   39.9900   27.4960  -14.5560 C   0  0  0  0  0  0  0  0  0  0  0  0
   39.8120   26.8870  -15.7930 O   0  0  0  0  0  0  0  0  0  0  0  0
   38.7250   27.2350  -16.5540 C   0  0  0  0  0  0  0  0  0  0  0  0
   38.5950   26.6100  -17.7950 C   0  0  0  0  0  0  0  0  0  0  0  0
   37.5090   26.9170  -18.6180 C   0  0  0  0  0  0  0  0  0  0  0  0
   36.5540   27.8470  -18.2010 C   0  0  0  0  0  0  0  0  0  0  0  0
   36.6870   28.4680  -16.9620 C   0  0  0  0  0  0  0  0  0  0  0  0
   35.7160   29.3680  -16.6150 O   0  0  0  0  0  0  0  0  0  0  0  0
   37.7750   28.1620  -16.1390 C   0  0  0  0  0  0  0  0  0  0  0  0
   37.9510   28.7920  -14.8290 C   0  0  0  0  0  0  0  0  0  0  0  0
   37.1510   29.6130  -14.3890 O   0  0  0  0  0  0  0  0  0  0  0  0
   39.1410   28.4030  -14.0380 C   0  0  0  0  0  0  0  0  0  0  0  0
   39.2910   28.9950  -12.7970 O   0  0  0  0  0  0  0  0  0  0  0  0
   41.3870   27.3320  -12.5010 C   0  0  0  0  0  0  0  0  0  0  0  0
   42.5170   26.8790  -11.8140 C   0  0  0  0  0  0  0  0  0  0  0  0
   43.4910   26.1030  -12.4590 C   0  0  0  0  0  0  0  0  0  0  0  0
   44.6850   25.6360  -11.6730 C   0  0  0  0  0  0  0  0  0  0  0  0
   45.8655   25.3471  -13.1542 H   0  0  0  0  0  0  0  0  0  0  0  0
   46.4310   24.5676  -14.6705 H   0  0  0  0  0  0  0  0  0  0  0  0
   45.9721   26.3043  -14.6705 H   0  0  0  0  0  0  0  0  0  0  0  0
   44.1462   25.0938  -15.6632 H   0  0  0  0  0  0  0  0  0  0  0  0
   44.1626   23.8808  -14.3136 H   0  0  0  0  0  0  0  0  0  0  0  0
   42.0274   25.9733  -15.5516 H   0  0  0  0  0  0  0  0  0  0  0  0
   39.3463   25.8771  -18.1244 H   0  0  0  0  0  0  0  0  0  0  0  0
   37.4056   26.4253  -19.5966 H   0  0  0  0  0  0  0  0  0  0  0  0
   35.6991   28.0882  -18.8498 H   0  0  0  0  0  0  0  0  0  0  0  0
   35.6620   30.1920  -17.0580 H   0  0  0  0  0  0  0  0  0  0  0  0
   38.8710   28.6240  -12.0460 H   0  0  0  0  0  0  0  0  0  0  0  0
   40.6353   27.9371  -11.9729 H   0  0  0  0  0  0  0  0  0  0  0  0
   42.6441   27.1350  -10.7518 H   0  0  0  0  0  0  0  0  0  0  0  0
   44.4713   25.7196  -10.5972 H   0  0  0  0  0  0  0  0  0  0  0  0
   44.9014   24.5870  -11.9234 H   0  0  0  0  0  0  0  0  0  0  0  0
   45.5557   26.2599  -11.9234 H   0  0  0  0  0  0  0  0  0  0  0  0
  1  2  1  0
  2  3  1  0
  3  4  2  0
  4  5  1  0
  5  6  1  0
  6  7  1  0
  7  8  1  0
  8  9  2  0
  9 10  1  0
 10 11  2  0
 11 12  1  0
 12 13  1  0
 12 14  2  0
 14 15  1  0
 15 16  2  0
 15 17  1  0
 17 18  1  0
  5 19  2  0
 19 20  1  0
 20 21  2  0
 21 22  1  0
 21  3  1  0
 17  6  2  0
 14  8  1  0
  1 23  1  0
  1 24  1  0
  1 25  1  0
  2 26  1  0
  2 27  1  0
  4 28  1  0
  9 29  1  0
 10 30  1  0
 11 31  1  0
 13 32  1  0
 18 33  1  0
 19 34  1  0
 20 35  1  0
 22 36  1  0
 22 37  1  0
 22 38  1  0
M  END
>  <meeko>  (8) 
{"is_sidechain": [false], "free_energy": -6.358, "intermolecular_energy": -8.031, "internal_energy": 1.073}

$$$$
cand_028_out
     RDKit          3D

 38 40  0  0  0  0  0  0  0  0999 V2000
   42.0630   26.8270  -10.9590 C   0  0  0  0  0  0  0  0  0  0  0  0
   43.2290   26.5880  -11.9060 C   0  0  0  0  0  0  0  0  0  0  0  0
   42.7620   26.2800  -13.3110 C   0  0  0  0  0  0  0  0  0  0  0  0
   41.5500   26.8500  -13.7510 C   0  0  0  0  0  0  0  0  0  0  0  0
   41.0380   26.5980  -15.0310 C   0  0  0  0  0  0  0  0  0  0  0  0
   39.7800   27.2150  -15.5020 C   0  0  0  0  0  0  0  0  0  0  0  0
   39.3630   26.7180  -16.7320 O   0  0  0  0  0  0  0  0  0  0  0  0
   38.2080   27.2060  -17.2880 C   0  0  0  0  0  0  0  0  0  0  0  0
   37.8360   26.6910  -18.5300 C   0  0  0  0  0  0  0  0  0  0  0  0
   36.6690   27.1430  -19.1510 C   0  0  0  0  0  0  0  0  0  0  0  0
   35.8760   28.1110  -18.5300 C   0  0  0  0  0  0  0  0  0  0  0  0
   36.2500   28.6230  -17.2910 C   0  0  0  0  0  0  0  0  0  0  0  0
   35.4280   29.5670  -16.7390 O   0  0  0  0  0  0  0  0  0  0  0  0
   37.4180   28.1710  -16.6710 C   0  0  0  0  0  0  0  0  0  0  0  0
   37.8470   28.6830  -15.3680 C   0  0  0  0  0  0  0  0  0  0  0  0
   37.1990   29.5290  -14.7570 O   0  0  0  0  0  0  0  0  0  0  0  0
   39.1040   28.1440  -14.8010 C   0  0  0  0  0  0  0  0  0  0  0  0
   39.4930   28.6260  -13.5640 O   0  0  0  0  0  0  0  0  0  0  0  0
   41.7700   25.7680  -15.8870 C   0  0  0  0  0  0  0  0  0  0  0  0
   42.9710   25.1900  -15.4650 C   0  0  0  0  0  0  0  0  0  0  0  0
   43.4740   25.4290  -14.1780 C   0  0  0  0  0  0  0  0  0  0  0  0
   44.7740   24.7880  -13.7760 C   0  0  0  0  0  0  0  0  0  0  0  0
   42.4145   26.7550   -9.9192 H   0  0  0  0  0  0  0  0  0  0  0  0
   41.6460   27.8293  -11.1365 H   0  0  0  0  0  0  0  0  0  0  0  0
   41.2853   26.0696  -11.1365 H   0  0  0  0  0  0  0  0  0  0  0  0
   43.8578   27.4902  -11.9303 H   0  0  0  0  0  0  0  0  0  0  0  0
   43.7945   25.7195  -11.5372 H   0  0  0  0  0  0  0  0  0  0  0  0
   40.9912   27.5102  -13.0714 H   0  0  0  0  0  0  0  0  0  0  0  0
   38.4609   25.9298  -19.0199 H   0  0  0  0  0  0  0  0  0  0  0  0
   36.3744   26.7363  -20.1297 H   0  0  0  0  0  0  0  0  0  0  0  0
   34.9577   28.4679  -19.0193 H   0  0  0  0  0  0  0  0  0  0  0  0
   34.5990   29.3140  -16.3800 H   0  0  0  0  0  0  0  0  0  0  0  0
   40.3310   28.3970  -13.2140 H   0  0  0  0  0  0  0  0  0  0  0  0
   41.3968   25.5682  -16.9023 H   0  0  0  0  0  0  0  0  0  0  0  0
   43.5297   24.5381  -16.1527 H   0  0  0  0  0  0  0  0  0  0  0  0
   44.8423   24.7543  -12.6786 H   0  0  0  0  0  0  0  0  0  0  0  0
   44.8180   23.7649  -14.1777 H   0  0  0  0  0  0  0  0  0  0  0  0
   45.6124   25.3760  -14.1777 H   0  0  0  0  0  0  0  0  0  0  0  0
  1  2  1  0
  2  3  1  0
  3  4  2  0
  4  5  1  0
  5  6  1  0
  6  7  1  0
  7  8  1  0
  8  9  2  0
  9 10  1  0
 10 11  2  0
 11 12  1  0
 12 13  1  0
 12 14  2  0
 14 15  1  0
 15 16  2  0
 15 17  1  0
 17 18  1  0
  5 19  2  0
 19 20  1  0
 20 21  2  0
 21 22  1  0
 21  3  1  0
 17  6  2  0
 14  8  1  0
  1 23  1  0
  1 24  1  0
  1 25  1  0
  2 26  1  0
  2 27  1  0
  4 28  1  0
  9 29  1  0
 10 30  1  0
 11 31  1  0
 13 32  1  0
 18 33  1  0
 19 34  1  0
 20 35  1  0
 22 36  1  0
 22 37  1  0
 22 38  1  0
M  END
>  <meeko>  (9) 
{"is_sidechain": [false], "free_energy": -5.808, "intermolecular_energy": -6.464, "internal_energy": 0.153}

$$$$
