cand_025_out
     RDKit          3D

 53 56  0  0  0  0  0  0  0  0999 V2000
   41.0830   26.9270  -11.1020 C   0  0  0  0  0  0  0  0  0  0  0  0
   42.3590   26.9250  -11.9300 C   0  0  0  0  0  0  0  0  0  0  0  0
   42.0800   26.7010  -13.4000 C   0  0  0  0  0  0  0  0  0  0  0  0
   40.8730   27.1910  -13.9400 C   0  0  0  0  0  0  0  0  0  0  0  0
   40.5480   27.0110  -15.2900 C   0  0  0  0  0  0  0  0  0  0  0  0
   39.2730   27.5000  -15.8570 C   0  0  0  0  0  0  0  0  0  0  0  0
   38.9740   26.9260  -17.0880 O   0  0  0  0  0  0  0  0  0  0  0  0
   37.8170   27.2900  -17.7260 C   0  0  0  0  0  0  0  0  0  0  0  0
   37.5480   26.6780  -18.9500 C   0  0  0  0  0  0  0  0  0  0  0  0
   36.3860   27.0060  -19.6540 C   0  0  0  0  0  0  0  0  0  0  0  0
   35.4950   27.9460  -19.1330 C   0  0  0  0  0  0  0  0  0  0  0  0
   35.7650   28.5550  -17.9100 C   0  0  0  0  0  0  0  0  0  0  0  0
   34.8500   29.4660  -17.4590 O   0  0  0  0  0  0  0  0  0  0  0  0
   36.9270   28.2270  -17.2070 C   0  0  0  0  0  0  0  0  0  0  0  0
   37.2490   28.8430  -15.9190 C   0  0  0  0  0  0  0  0  0  0  0  0
   36.5170   29.6830  -15.4000 O   0  0  0  0  0  0  0  0  0  0  0  0
   38.5010   28.4200  -15.2500 C   0  0  0  0  0  0  0  0  0  0  0  0
   38.8010   29.0180  -14.0410 O   0  0  0  0  0  0  0  0  0  0  0  0
   41.4480   26.3100  -16.1000 C   0  0  0  0  0  0  0  0  0  0  0  0
   42.6450   25.8130  -15.5750 C   0  0  0  0  0  0  0  0  0  0  0  0
   42.9770   25.9920  -14.2240 C   0  0  0  0  0  0  0  0  0  0  0  0
   44.1790   25.5030  -13.6770 N   0  0  0  0  0  0  0  0  0  0  0  0
   44.6040   24.1940  -14.2170 C   0  0  0  0  0  0  0  0  0  0  0  0
   45.8520   23.6940  -13.4510 C   0  0  0  0  0  0  0  0  0  0  0  0
   46.9760   24.6590  -13.5110 N   0  0  0  0  0  0  0  0  0  0  0  0
   48.1130   24.1740  -12.7310 C   0  0  0  0  0  0  0  0  0  0  0  0
   46.5170   25.9720  -13.0000 C   0  0  0  0  0  0  0  0  0  0  0  0
   45.2700   26.5010  -13.7480 C   0  0  0  0  0  0  0  0  0  0  0  0
   41.3400   26.9266  -10.0324 H   0  0  0  0  0  0  0  0  0  0  0  0
   40.4946   27.8261  -11.3374 H   0  0  0  0  0  0  0  0  0  0  0  0
   40.4917   26.0298  -11.3374 H   0  0  0  0  0  0  0  0  0  0  0  0
   42.8632   27.8950  -11.8079 H   0  0  0  0  0  0  0  0  0  0  0  0
   42.9934   26.0995  -11.5748 H   0  0  0  0  0  0  0  0  0  0  0  0
   40.1703   27.7272  -13.2853 H   0  0  0  0  0  0  0  0  0  0  0  0
   38.2500   25.9376  -19.3611 H   0  0  0  0  0  0  0  0  0  0  0  0
   36.1734   26.5232  -20.6192 H   0  0  0  0  0  0  0  0  0  0  0  0
   34.5811   28.2052  -19.6876 H   0  0  0  0  0  0  0  0  0  0  0  0
   34.5810   30.1740  -18.0110 H   0  0  0  0  0  0  0  0  0  0  0  0
   38.5520   29.9080  -13.8830 H   0  0  0  0  0  0  0  0  0  0  0  0
   41.2113   26.1480  -17.1619 H   0  0  0  0  0  0  0  0  0  0  0  0
   43.3395   25.2714  -16.2341 H   0  0  0  0  0  0  0  0  0  0  0  0
   43.7869   23.4671  -14.0989 H   0  0  0  0  0  0  0  0  0  0  0  0
   44.8505   24.3027  -15.2835 H   0  0  0  0  0  0  0  0  0  0  0  0
   45.5793   23.5343  -12.3974 H   0  0  0  0  0  0  0  0  0  0  0  0
   46.1859   22.7601  -13.9269 H   0  0  0  0  0  0  0  0  0  0  0  0
   47.2820   24.7610  -14.4790 H   0  0  0  0  0  0  0  0  0  0  0  0
   47.8892   24.2695  -11.6583 H   0  0  0  0  0  0  0  0  0  0  0  0
   48.3004   23.1176  -12.9739 H   0  0  0  0  0  0  0  0  0  0  0  0
   49.0052   24.7699  -12.9739 H   0  0  0  0  0  0  0  0  0  0  0  0
   46.2695   25.8675  -11.9333 H   0  0  0  0  0  0  0  0  0  0  0  0
   47.3314   26.6939  -13.1598 H   0  0  0  0  0  0  0  0  0  0  0  0
   44.9363   27.4400  -13.2822 H   0  0  0  0  0  0  0  0  0  0  0  0
   45.5288   26.6803  -14.8020 H   0  0  0  0  0  0  0  0  0  0  0  0
  1  2  1  0
  2  3  1  0
  3  4  2  0
  4  5  1  0
  5  6  1  0
  6  7  1  0
  7  8  1  0
  8  9  2  0
  9 10  1  0
 10 11  2  0
 11 12  1  0
 12 13  1  0
 12 14  2  0
 14 15  1  0
 15 16  2  0
 15 17  1  0
 17 18  1  0
  5 19  2  0
 19 20  1  0
 20 21  2  0
 21 22  1  0
 22 23  1  0
 23 24  1  0
 24 25  1  0
 25 26  1  0
 25 27  1  0
 27 28  1  0
 21  3  1  0
 28 22  1  0
 17  6  2  0
 14  8  1  0
  1 29  1  0
  1 30  1  0
  1 31  1  0
  2 32  1  0
  2 33  1  0
  4 34  1  0
  9 35  1  0
 10 36  1  0
 11 37  1  0
 13 38  1  0
 18 39  1  0
 19 40  1  0
 20 41  1  0
 23 42  1  0
 23 43  1  0
 24 44  1  0
 24 45  1  0
 25 46  1  0
 26 47  1  0
 26 48  1  0
 26 49  1  0
 27 50  1  0
 27 51  1  0
 28 52  1  0
 28 53  1  0
M  CHG  1  25   1
M  END
>  <meeko>  (1) 
{"is_sidechain": [false], "free_energy": -0.796, "intermolecular_energy": -0.982, "internal_energy": -0.023}

$$$$
cand_025_out
     RDKit          3D

 53 56  0  0  0  0  0  0  0  0999 V2000
   39.6230   28.6200  -12.5230 C   0  0  0  0  0  0  0  0  0  0  0  0
   38.8620   28.2370  -13.7840 C   0  0  0  0  0  0  0  0  0  0  0  0
   39.7180   27.4370  -14.7400 C   0  0  0  0  0  0  0  0  0  0  0  0
   40.9720   26.9710  -14.2960 C   0  0  0  0  0  0  0  0  0  0  0  0
   41.8180   26.2320  -15.1330 C   0  0  0  0  0  0  0  0  0  0  0  0
   43.1450   25.7610  -14.6820 C   0  0  0  0  0  0  0  0  0  0  0  0
   44.1200   26.7500  -14.7480 O   0  0  0  0  0  0  0  0  0  0  0  0
   45.3990   26.4470  -14.3570 C   0  0  0  0  0  0  0  0  0  0  0  0
   46.3420   27.4730  -14.4240 C   0  0  0  0  0  0  0  0  0  0  0  0
   47.6640   27.2320  -14.0420 C   0  0  0  0  0  0  0  0  0  0  0  0
   48.0410   25.9640  -13.5940 C   0  0  0  0  0  0  0  0  0  0  0  0
   47.0980   24.9420  -13.5270 C   0  0  0  0  0  0  0  0  0  0  0  0
   47.5360   23.7260  -13.0790 O   0  0  0  0  0  0  0  0  0  0  0  0
   45.7760   25.1840  -13.9080 C   0  0  0  0  0  0  0  0  0  0  0  0
   44.7540   24.1380  -13.8540 C   0  0  0  0  0  0  0  0  0  0  0  0
   45.0110   22.9970  -13.4770 O   0  0  0  0  0  0  0  0  0  0  0  0
   43.3800   24.5000  -14.2730 C   0  0  0  0  0  0  0  0  0  0  0  0
   42.4260   23.5010  -14.2290 O   0  0  0  0  0  0  0  0  0  0  0  0
   41.3970   25.9790  -16.4420 C   0  0  0  0  0  0  0  0  0  0  0  0
   40.1590   26.4420  -16.8980 C   0  0  0  0  0  0  0  0  0  0  0  0
   39.3060   27.1800  -16.0640 C   0  0  0  0  0  0  0  0  0  0  0  0
   38.0540   27.6520  -16.5010 N   0  0  0  0  0  0  0  0  0  0  0  0
   37.7760   29.0600  -16.1440 C   0  0  0  0  0  0  0  0  0  0  0  0
   36.3290   29.4260  -16.5510 C   0  0  0  0  0  0  0  0  0  0  0  0
   36.0750   29.2080  -17.9950 N   0  0  0  0  0  0  0  0  0  0  0  0
   34.6850   29.5130  -18.3260 C   0  0  0  0  0  0  0  0  0  0  0  0
   36.3960   27.8020  -18.3380 C   0  0  0  0  0  0  0  0  0  0  0  0
   37.8390   27.4050  -17.9450 C   0  0  0  0  0  0  0  0  0  0  0  0
   39.0387   28.3260  -11.6386 H   0  0  0  0  0  0  0  0  0  0  0  0
   40.5939   28.1032  -12.5095 H   0  0  0  0  0  0  0  0  0  0  0  0
   39.7864   29.7077  -12.5095 H   0  0  0  0  0  0  0  0  0  0  0  0
   37.9865   27.6340  -13.5013 H   0  0  0  0  0  0  0  0  0  0  0  0
   38.5587   29.1638  -14.2930 H   0  0  0  0  0  0  0  0  0  0  0  0
   41.2940   27.1929  -13.2678 H   0  0  0  0  0  0  0  0  0  0  0  0
   46.0447   28.4713  -14.7775 H   0  0  0  0  0  0  0  0  0  0  0  0
   48.4078   28.0407  -14.0940 H   0  0  0  0  0  0  0  0  0  0  0  0
   49.0820   25.7730  -13.2944 H   0  0  0  0  0  0  0  0  0  0  0  0
   46.9190   23.0470  -12.8880 H   0  0  0  0  0  0  0  0  0  0  0  0
   42.2550   23.0510  -13.4260 H   0  0  0  0  0  0  0  0  0  0  0  0
   42.0476   25.4088  -17.1214 H   0  0  0  0  0  0  0  0  0  0  0  0
   39.8480   26.2234  -17.9302 H   0  0  0  0  0  0  0  0  0  0  0  0
   37.8949   29.1921  -15.0585 H   0  0  0  0  0  0  0  0  0  0  0  0
   38.4807   29.7163  -16.6757 H   0  0  0  0  0  0  0  0  0  0  0  0
   35.6311   28.8035  -15.9718 H   0  0  0  0  0  0  0  0  0  0  0  0
   36.1830   30.4962  -16.3430 H   0  0  0  0  0  0  0  0  0  0  0  0
   36.6710   29.8330  -18.5400 H   0  0  0  0  0  0  0  0  0  0  0  0
   34.1067   29.6399  -17.3989 H   0  0  0  0  0  0  0  0  0  0  0  0
   34.6434   30.4416  -18.9141 H   0  0  0  0  0  0  0  0  0  0  0  0
   34.2584   28.6871  -18.9141 H   0  0  0  0  0  0  0  0  0  0  0  0
   35.6931   27.1416  -17.8090 H   0  0  0  0  0  0  0  0  0  0  0  0
   36.3090   27.6986  -19.4297 H   0  0  0  0  0  0  0  0  0  0  0  0
   37.9949   26.3375  -18.1596 H   0  0  0  0  0  0  0  0  0  0  0  0
   38.5517   28.0089  -18.5258 H   0  0  0  0  0  0  0  0  0  0  0  0
  1  2  1  0
  2  3  1  0
  3  4  2  0
  4  5  1  0
  5  6  1  0
  6  7  1  0
  7  8  1  0
  8  9  2  0
  9 10  1  0
 10 11  2  0
 11 12  1  0
 12 13  1  0
 12 14  2  0
 14 15  1  0
 15 16  2  0
 15 17  1  0
 17 18  1  0
  5 19  2  0
 19 20  1  0
 20 21  2  0
 21 22  1  0
 22 23  1  0
 23 24  1  0
 24 25  1  0
 25 26  1  0
 25 27  1  0
 27 28  1  0
 21  3  1  0
 28 22  1  0
 17  6  2  0
 14  8  1  0
  1 29  1  0
  1 30  1  0
  1 31  1  0
  2 32  1  0
  2 33  1  0
  4 34  1  0
  9 35  1  0
 10 36  1  0
 11 37  1  0
 13 38  1  0
 18 39  1  0
 19 40  1  0
 20 41  1  0
 23 42  1  0
 23 43  1  0
 24 44  1  0
 24 45  1  0
 25 46  1  0
 26 47  1  0
 26 48  1  0
 26 49  1  0
 27 50  1  0
 27 51  1  0
 28 52  1  0
 28 53  1  0
M  CHG  1  25   1
M  END
>  <meeko>  (2) 
{"is_sidechain": [false], "free_energy": 0.537, "intermolecular_energy": 0.406, "internal_energy": 0.234}

$$$$
cand_025_out
     RDKit          3D

 53 56  0  0  0  0  0  0  0  0999 V2000
   40.3590   27.2980  -11.8990 C   0  0  0  0  0  0  0  0  0  0  0  0
   41.7400   26.9660  -12.4450 C   0  0  0  0  0  0  0  0  0  0  0  0
   41.6970   26.6140  -13.9160 C   0  0  0  0  0  0  0  0  0  0  0  0
   40.5500   26.9570  -14.6600 C   0  0  0  0  0  0  0  0  0  0  0  0
   40.4410   26.6530  -16.0220 C   0  0  0  0  0  0  0  0  0  0  0  0
   39.2310   26.9880  -16.8020 C   0  0  0  0  0  0  0  0  0  0  0  0
   38.5020   28.0330  -16.2460 O   0  0  0  0  0  0  0  0  0  0  0  0
   37.3540   28.4470  -16.8710 C   0  0  0  0  0  0  0  0  0  0  0  0
   36.6620   29.5090  -16.2890 C   0  0  0  0  0  0  0  0  0  0  0  0
   35.4840   29.9790  -16.8730 C   0  0  0  0  0  0  0  0  0  0  0  0
   34.9980   29.3860  -18.0400 C   0  0  0  0  0  0  0  0  0  0  0  0
   35.6910   28.3270  -18.6210 C   0  0  0  0  0  0  0  0  0  0  0  0
   35.1590   27.7930  -19.7630 O   0  0  0  0  0  0  0  0  0  0  0  0
   36.8690   27.8570  -18.0360 C   0  0  0  0  0  0  0  0  0  0  0  0
   37.6280   26.7460  -18.6130 C   0  0  0  0  0  0  0  0  0  0  0  0
   37.2600   26.1700  -19.6350 O   0  0  0  0  0  0  0  0  0  0  0  0
   38.8680   26.3300  -17.9200 C   0  0  0  0  0  0  0  0  0  0  0  0
   39.5690   25.2720  -18.4670 O   0  0  0  0  0  0  0  0  0  0  0  0
   41.5000   25.9750  -16.6350 C   0  0  0  0  0  0  0  0  0  0  0  0
   42.6400   25.6210  -15.9070 C   0  0  0  0  0  0  0  0  0  0  0  0
   42.7560   25.9260  -14.5420 C   0  0  0  0  0  0  0  0  0  0  0  0
   43.8970   25.5830  -13.7920 N   0  0  0  0  0  0  0  0  0  0  0  0
   44.5300   24.3090  -14.1960 C   0  0  0  0  0  0  0  0  0  0  0  0
   45.6830   23.9670  -13.2230 C   0  0  0  0  0  0  0  0  0  0  0  0
   46.7020   25.0410  -13.1530 N   0  0  0  0  0  0  0  0  0  0  0  0
   47.7410   24.7030  -12.1840 C   0  0  0  0  0  0  0  0  0  0  0  0
   46.0390   26.3150  -12.7830 C   0  0  0  0  0  0  0  0  0  0  0  0
   44.8820   26.6870  -13.7400 C   0  0  0  0  0  0  0  0  0  0  0  0
   40.3881   27.2910  -10.7994 H   0  0  0  0  0  0  0  0  0  0  0  0
   40.0553   28.2948  -12.2514 H   0  0  0  0  0  0  0  0  0  0  0  0
   39.6354   26.5482  -12.2514 H   0  0  0  0  0  0  0  0  0  0  0  0
   42.3957   27.8384  -12.3074 H   0  0  0  0  0  0  0  0  0  0  0  0
   42.1215   26.0919  -11.8969 H   0  0  0  0  0  0  0  0  0  0  0  0
   39.7203   27.4762  -14.1580 H   0  0  0  0  0  0  0  0  0  0  0  0
   37.0444   29.9764  -15.3696 H   0  0  0  0  0  0  0  0  0  0  0  0
   34.9387   30.8166  -16.4136 H   0  0  0  0  0  0  0  0  0  0  0  0
   34.0692   29.7548  -18.4997 H   0  0  0  0  0  0  0  0  0  0  0  0
   34.2340   27.6580  -19.8300 H   0  0  0  0  0  0  0  0  0  0  0  0
   39.7360   25.2460  -19.3880 H   0  0  0  0  0  0  0  0  0  0  0  0
   41.4351   25.7173  -17.7024 H   0  0  0  0  0  0  0  0  0  0  0  0
   43.4615   25.0934  -16.4137 H   0  0  0  0  0  0  0  0  0  0  0  0
   43.7803   23.5045  -14.1714 H   0  0  0  0  0  0  0  0  0  0  0  0
   44.9316   24.4093  -15.2152 H   0  0  0  0  0  0  0  0  0  0  0  0
   45.2629   23.8128  -12.2181 H   0  0  0  0  0  0  0  0  0  0  0  0
   46.1786   23.0590  -13.5970 H   0  0  0  0  0  0  0  0  0  0  0  0
   47.1460   25.1440  -14.0650 H   0  0  0  0  0  0  0  0  0  0  0  0
   47.3475   24.8310  -11.1648 H   0  0  0  0  0  0  0  0  0  0  0  0
   48.0512   23.6576  -12.3287 H   0  0  0  0  0  0  0  0  0  0  0  0
   48.6069   25.3658  -12.3287 H   0  0  0  0  0  0  0  0  0  0  0  0
   45.6356   26.2186  -11.7642 H   0  0  0  0  0  0  0  0  0  0  0  0
   46.7934   27.1129  -12.8486 H   0  0  0  0  0  0  0  0  0  0  0  0
   44.3877   27.6002  -13.3771 H   0  0  0  0  0  0  0  0  0  0  0  0
   45.2868   26.8592  -14.7482 H   0  0  0  0  0  0  0  0  0  0  0  0
  1  2  1  0
  2  3  1  0
  3  4  2  0
  4  5  1  0
  5  6  1  0
  6  7  1  0
  7  8  1  0
  8  9  2  0
  9 10  1  0
 10 11  2  0
 11 12  1  0
 12 13  1  0
 12 14  2  0
 14 15  1  0
 15 16  2  0
 15 17  1  0
 17 18  1  0
  5 19  2  0
 19 20  1  0
 20 21  2  0
 21 22  1  0
 22 23  1  0
 23 24  1  0
 24 25  1  0
 25 26  1  0
 25 27  1  0
 27 28  1  0
 21  3  1  0
 28 22  1  0
 17  6  2  0
 14  8  1  0
  1 29  1  0
  1 30  1  0
  1 31  1  0
  2 32  1  0
  2 33  1  0
  4 34  1  0
  9 35  1  0
 10 36  1  0
 11 37  1  0
 13 38  1  0
 18 39  1  0
 19 40  1  0
 20 41  1  0
 23 42  1  0
 23 43  1  0
 24 44  1  0
 24 45  1  0
 25 46  1  0
 26 47  1  0
 26 48  1  0
 26 49  1  0
 27 50  1  0
 27 51  1  0
 28 52  1  0
 28 53  1  0
M  CHG  1  25   1
M  END
>  <meeko>  (3) 
{"is_sidechain": [false], "free_energy": 0.725, "intermolecular_energy": 0.853, "internal_energy": 0.019}

$$$$
cand_025_out
     RDKit          3D

 53 56  0  0  0  0  0  0  0  0999 V2000
   37.2780   29.8840  -13.5760 C   0  0  0  0  0  0  0  0  0  0  0  0
   36.7840   29.1540  -14.8160 C   0  0  0  0  0  0  0  0  0  0  0  0
   37.8250   28.2040  -15.3650 C   0  0  0  0  0  0  0  0  0  0  0  0
   38.9590   27.9150  -14.5790 C   0  0  0  0  0  0  0  0  0  0  0  0
   39.9640   27.0520  -15.0300 C   0  0  0  0  0  0  0  0  0  0  0  0
   41.1670   26.7650  -14.2210 C   0  0  0  0  0  0  0  0  0  0  0  0
   42.1930   26.1890  -14.9620 O   0  0  0  0  0  0  0  0  0  0  0  0
   43.3700   25.8720  -14.3340 C   0  0  0  0  0  0  0  0  0  0  0  0
   44.3770   25.3110  -15.1190 C   0  0  0  0  0  0  0  0  0  0  0  0
   45.6000   24.9630  -14.5400 C   0  0  0  0  0  0  0  0  0  0  0  0
   45.8140   25.1760  -13.1770 C   0  0  0  0  0  0  0  0  0  0  0  0
   44.8070   25.7360  -12.3950 C   0  0  0  0  0  0  0  0  0  0  0  0
   45.0840   25.9170  -11.0680 O   0  0  0  0  0  0  0  0  0  0  0  0
   43.5840   26.0840  -12.9750 C   0  0  0  0  0  0  0  0  0  0  0  0
   42.5000   26.6760  -12.1900 C   0  0  0  0  0  0  0  0  0  0  0  0
   42.6110   26.8870  -10.9840 O   0  0  0  0  0  0  0  0  0  0  0  0
   41.2460   27.0160  -12.9000 C   0  0  0  0  0  0  0  0  0  0  0  0
   40.2240   27.5620  -12.1470 O   0  0  0  0  0  0  0  0  0  0  0  0
   39.8300   26.4870  -16.3030 C   0  0  0  0  0  0  0  0  0  0  0  0
   38.7140   26.7710  -17.0960 C   0  0  0  0  0  0  0  0  0  0  0  0
   37.7020   27.6330  -16.6480 C   0  0  0  0  0  0  0  0  0  0  0  0
   36.5680   27.9290  -17.4300 N   0  0  0  0  0  0  0  0  0  0  0  0
   36.2720   29.3730  -17.5490 C   0  0  0  0  0  0  0  0  0  0  0  0
   34.9380   29.5700  -18.3080 C   0  0  0  0  0  0  0  0  0  0  0  0
   34.9530   28.9410  -19.6510 N   0  0  0  0  0  0  0  0  0  0  0  0
   33.6590   29.1040  -20.3090 C   0  0  0  0  0  0  0  0  0  0  0  0
   35.2890   27.5040  -19.5090 C   0  0  0  0  0  0  0  0  0  0  0  0
   36.6200   27.2730  -18.7560 C   0  0  0  0  0  0  0  0  0  0  0  0
   36.9233   29.3599  -12.6763 H   0  0  0  0  0  0  0  0  0  0  0  0
   38.3778   29.9066  -13.5776 H   0  0  0  0  0  0  0  0  0  0  0  0
   36.8901   30.9133  -13.5776 H   0  0  0  0  0  0  0  0  0  0  0  0
   35.8821   28.5808  -14.5553 H   0  0  0  0  0  0  0  0  0  0  0  0
   36.5673   29.9054  -15.5896 H   0  0  0  0  0  0  0  0  0  0  0  0
   39.0563   28.3794  -13.5866 H   0  0  0  0  0  0  0  0  0  0  0  0
   44.2086   25.1427  -16.1929 H   0  0  0  0  0  0  0  0  0  0  0  0
   46.3949   24.5208  -15.1586 H   0  0  0  0  0  0  0  0  0  0  0  0
   46.7769   24.9018  -12.7213 H   0  0  0  0  0  0  0  0  0  0  0  0
   44.3920   25.8830  -10.4360 H   0  0  0  0  0  0  0  0  0  0  0  0
   39.3400   27.5210  -12.4540 H   0  0  0  0  0  0  0  0  0  0  0  0
   40.6108   25.8123  -16.6839 H   0  0  0  0  0  0  0  0  0  0  0  0
   38.6279   26.3094  -18.0907 H   0  0  0  0  0  0  0  0  0  0  0  0
   36.1899   29.8136  -16.5445 H   0  0  0  0  0  0  0  0  0  0  0  0
   37.0835   29.8672  -18.1033 H   0  0  0  0  0  0  0  0  0  0  0  0
   34.1258   29.1215  -17.7170 H   0  0  0  0  0  0  0  0  0  0  0  0
   34.7871   30.6509  -18.4457 H   0  0  0  0  0  0  0  0  0  0  0  0
   35.6580   29.3980  -20.2290 H   0  0  0  0  0  0  0  0  0  0  0  0
   32.8707   29.2033  -19.5482 H   0  0  0  0  0  0  0  0  0  0  0  0
   33.6782   30.0068  -20.9371 H   0  0  0  0  0  0  0  0  0  0  0  0
   33.4537   28.2246  -20.9371 H   0  0  0  0  0  0  0  0  0  0  0  0
   34.4799   27.0068  -18.9539 H   0  0  0  0  0  0  0  0  0  0  0  0
   35.4037   27.0884  -20.5210 H   0  0  0  0  0  0  0  0  0  0  0  0
   36.7812   26.1931  -18.6228 H   0  0  0  0  0  0  0  0  0  0  0  0
   37.4467   27.7025  -19.3408 H   0  0  0  0  0  0  0  0  0  0  0  0
  1  2  1  0
  2  3  1  0
  3  4  2  0
  4  5  1  0
  5  6  1  0
  6  7  1  0
  7  8  1  0
  8  9  2  0
  9 10  1  0
 10 11  2  0
 11 12  1  0
 12 13  1  0
 12 14  2  0
 14 15  1  0
 15 16  2  0
 15 17  1  0
 17 18  1  0
  5 19  2  0
 19 20  1  0
 20 21  2  0
 21 22  1  0
 22 23  1  0
 23 24  1  0
 24 25  1  0
 25 26  1  0
 25 27  1  0
 27 28  1  0
 21  3  1  0
 28 22  1  0
 17  6  2  0
 14  8  1  0
  1 29  1  0
  1 30  1  0
  1 31  1  0
  2 32  1  0
  2 33  1  0
  4 34  1  0
  9 35  1  0
 10 36  1  0
 11 37  1  0
 13 38  1  0
 18 39  1  0
 19 40  1  0
 20 41  1  0
 23 42  1  0
 23 43  1  0
 24 44  1  0
 24 45  1  0
 25 46  1  0
 26 47  1  0
 26 48  1  0
 26 49  1  0
 27 50  1  0
 27 51  1  0
 28 52  1  0
 28 53  1  0
M  CHG  1  25   1
M  END
>  <meeko>  (4) 
{"is_sidechain": [false], "free_energy": 1.721, "intermolecular_energy": 1.417, "internal_energy": 0.684}

$$$$
