cand_046_out
     RDKit          3D

 39 41  0  0  0  0  0  0  0  0999 V2000
   44.6580   28.6560  -12.9010 C   0  0  0  0  0  0  0  0  0  0  0  0
   44.4580   27.3650  -12.6060 C   0  0  0  0  0  0  0  0  0  0  0  0
   43.7170   26.4450  -13.4810 C   0  0  0  0  0  0  0  0  0  0  0  0
   42.5620   26.9080  -14.1380 C   0  0  0  0  0  0  0  0  0  0  0  0
   41.8320   26.0900  -15.0130 C   0  0  0  0  0  0  0  0  0  0  0  0
   40.6070   26.6110  -15.6570 C   0  0  0  0  0  0  0  0  0  0  0  0
   39.8580   27.4230  -14.8140 O   0  0  0  0  0  0  0  0  0  0  0  0
   38.6960   27.9760  -15.2870 C   0  0  0  0  0  0  0  0  0  0  0  0
   37.9680   28.7730  -14.4030 C   0  0  0  0  0  0  0  0  0  0  0  0
   36.7750   29.3680  -14.8210 C   0  0  0  0  0  0  0  0  0  0  0  0
   36.3120   29.1670  -16.1220 C   0  0  0  0  0  0  0  0  0  0  0  0
   37.0400   28.3710  -17.0030 C   0  0  0  0  0  0  0  0  0  0  0  0
   36.5280   28.2150  -18.2630 O   0  0  0  0  0  0  0  0  0  0  0  0
   38.2320   27.7750  -16.5830 C   0  0  0  0  0  0  0  0  0  0  0  0
   39.0290   26.9320  -17.4770 C   0  0  0  0  0  0  0  0  0  0  0  0
   38.6890   26.7130  -18.6380 O   0  0  0  0  0  0  0  0  0  0  0  0
   40.2730   26.3420  -16.9330 C   0  0  0  0  0  0  0  0  0  0  0  0
   41.0250   25.5590  -17.7890 O   0  0  0  0  0  0  0  0  0  0  0  0
   42.2730   24.7800  -15.2200 C   0  0  0  0  0  0  0  0  0  0  0  0
   43.4220   24.3070  -14.5830 C   0  0  0  0  0  0  0  0  0  0  0  0
   44.1580   25.1260  -13.7090 C   0  0  0  0  0  0  0  0  0  0  0  0
   45.3970   24.5500  -13.0610 C   0  0  0  0  0  0  0  0  0  0  0  0
   46.6270   24.7060  -13.9430 C   0  0  0  0  0  0  0  0  0  0  0  0
   45.2209   29.2979  -12.2073 H   0  0  0  0  0  0  0  0  0  0  0  0
   44.2594   29.0745  -13.8370 H   0  0  0  0  0  0  0  0  0  0  0  0
   44.8681   26.9741  -11.6632 H   0  0  0  0  0  0  0  0  0  0  0  0
   42.2224   27.9391  -13.9607 H   0  0  0  0  0  0  0  0  0  0  0  0
   38.3330   28.9328  -13.3777 H   0  0  0  0  0  0  0  0  0  0  0  0
   36.2002   29.9955  -14.1240 H   0  0  0  0  0  0  0  0  0  0  0  0
   35.3733   29.6366  -16.4513 H   0  0  0  0  0  0  0  0  0  0  0  0
   37.1020   28.2020  -19.0020 H   0  0  0  0  0  0  0  0  0  0  0  0
   40.5980   24.9810  -18.3910 H   0  0  0  0  0  0  0  0  0  0  0  0
   41.7095   24.1152  -15.8912 H   0  0  0  0  0  0  0  0  0  0  0  0
   43.7570   23.2758  -14.7682 H   0  0  0  0  0  0  0  0  0  0  0  0
   45.5746   25.0711  -12.1087 H   0  0  0  0  0  0  0  0  0  0  0  0
   45.2280   23.4749  -12.9010 H   0  0  0  0  0  0  0  0  0  0  0  0
   47.5198   24.8192  -13.3105 H   0  0  0  0  0  0  0  0  0  0  0  0
   46.7382   23.8148  -14.5781 H   0  0  0  0  0  0  0  0  0  0  0  0
   46.5122   25.5968  -14.5781 H   0  0  0  0  0  0  0  0  0  0  0  0
  1  2  2  0
  2  3  1  0
  3  4  2  0
  4  5  1  0
  5  6  1  0
  6  7  1  0
  7  8  1  0
  8  9  2  0
  9 10  1  0
 10 11  2  0
 11 12  1  0
 12 13  1  0
 12 14  2  0
 14 15  1  0
 15 16  2  0
 15 17  1  0
 17 18  1  0
  5 19  2  0
 19 20  1  0
 20 21  2  0
 21 22  1  0
 22 23  1  0
 21  3  1  0
 17  6  2  0
 14  8  1  0
  1 24  1  0
  1 25  1  0
  2 26  1  0
  4 27  1  0
  9 28  1  0
 10 29  1  0
 11 30  1  0
 13 31  1  0
 18 32  1  0
 19 33  1  0
 20 34  1  0
 22 35  1  0
 22 36  1  0
 23 37  1  0
 23 38  1  0
 23 39  1  0
M  END
>  <meeko>  (1) 
{"is_sidechain": [false], "free_energy": -6.76, "intermolecular_energy": -8.341, "internal_energy": -0.311}

$$$$
cand_046_out
     RDKit          3D

 39 41  0  0  0  0  0  0  0  0999 V2000
   46.4690   27.4540  -12.5750 C   0  0  0  0  0  0  0  0  0  0  0  0
   45.2410   27.0750  -12.1960 C   0  0  0  0  0  0  0  0  0  0  0  0
   44.3050   26.3710  -13.0860 C   0  0  0  0  0  0  0  0  0  0  0  0
   43.0730   26.9760  -13.3950 C   0  0  0  0  0  0  0  0  0  0  0  0
   42.1520   26.3720  -14.2650 C   0  0  0  0  0  0  0  0  0  0  0  0
   40.8560   27.0310  -14.5360 C   0  0  0  0  0  0  0  0  0  0  0  0
   40.3720   26.7620  -15.8120 O   0  0  0  0  0  0  0  0  0  0  0  0
   39.1750   27.3090  -16.1950 C   0  0  0  0  0  0  0  0  0  0  0  0
   38.7330   27.0250  -17.4870 C   0  0  0  0  0  0  0  0  0  0  0  0
   37.5200   27.5500  -17.9410 C   0  0  0  0  0  0  0  0  0  0  0  0
   36.7500   28.3560  -17.1010 C   0  0  0  0  0  0  0  0  0  0  0  0
   37.1920   28.6380  -15.8110 C   0  0  0  0  0  0  0  0  0  0  0  0
   36.3880   29.4350  -15.0420 O   0  0  0  0  0  0  0  0  0  0  0  0
   38.4060   28.1140  -15.3590 C   0  0  0  0  0  0  0  0  0  0  0  0
   38.9080   28.3850  -14.0110 C   0  0  0  0  0  0  0  0  0  0  0  0
   38.2840   29.0810  -13.2120 O   0  0  0  0  0  0  0  0  0  0  0  0
   40.2080   27.7880  -13.6310 C   0  0  0  0  0  0  0  0  0  0  0  0
   40.6670   28.0390  -12.3510 O   0  0  0  0  0  0  0  0  0  0  0  0
   42.4810   25.1340  -14.8240 C   0  0  0  0  0  0  0  0  0  0  0  0
   43.7040   24.5240  -14.5350 C   0  0  0  0  0  0  0  0  0  0  0  0
   44.6290   25.1290  -13.6670 C   0  0  0  0  0  0  0  0  0  0  0  0
   45.9370   24.4170  -13.4060 C   0  0  0  0  0  0  0  0  0  0  0  0
   47.0170   24.8260  -14.3970 C   0  0  0  0  0  0  0  0  0  0  0  0
   47.1263   27.9781  -11.8656 H   0  0  0  0  0  0  0  0  0  0  0  0
   46.8199   27.2410  -13.5956 H   0  0  0  0  0  0  0  0  0  0  0  0
   44.9170   27.3013  -11.1694 H   0  0  0  0  0  0  0  0  0  0  0  0
   42.8251   27.9477  -12.9430 H   0  0  0  0  0  0  0  0  0  0  0  0
   39.3389   26.3881  -18.1483 H   0  0  0  0  0  0  0  0  0  0  0  0
   37.1720   27.3280  -18.9606 H   0  0  0  0  0  0  0  0  0  0  0  0
   35.7946   28.7682  -17.4578 H   0  0  0  0  0  0  0  0  0  0  0  0
   35.4690   29.2640  -14.9940 H   0  0  0  0  0  0  0  0  0  0  0  0
   40.3290   27.5460  -11.6290 H   0  0  0  0  0  0  0  0  0  0  0  0
   41.7696   24.6349  -15.4984 H   0  0  0  0  0  0  0  0  0  0  0  0
   43.9470   23.5544  -14.9942 H   0  0  0  0  0  0  0  0  0  0  0  0
   46.2775   24.6614  -12.3890 H   0  0  0  0  0  0  0  0  0  0  0  0
   45.7639   23.3366  -13.5192 H   0  0  0  0  0  0  0  0  0  0  0  0
   47.9088   25.1637  -13.8487 H   0  0  0  0  0  0  0  0  0  0  0  0
   47.2795   23.9650  -15.0293 H   0  0  0  0  0  0  0  0  0  0  0  0
   46.6433   25.6449  -15.0293 H   0  0  0  0  0  0  0  0  0  0  0  0
  1  2  2  0
  2  3  1  0
  3  4  2  0
  4  5  1  0
  5  6  1  0
  6  7  1  0
  7  8  1  0
  8  9  2  0
  9 10  1  0
 10 11  2  0
 11 12  1  0
 12 13  1  0
 12 14  2  0
 14 15  1  0
 15 16  2  0
 15 17  1  0
 17 18  1  0
  5 19  2  0
 19 20  1  0
 20 21  2  0
 21 22  1  0
 22 23  1  0
 21  3  1  0
 17  6  2  0
 14  8  1  0
  1 24  1  0
  1 25  1  0
  2 26  1  0
  4 27  1  0
  9 28  1  0
 10 29  1  0
 11 30  1  0
 13 31  1  0
 18 32  1  0
 19 33  1  0
 20 34  1  0
 22 35  1  0
 22 36  1  0
 23 37  1  0
 23 38  1  0
 23 39  1  0
M  END
>  <meeko>  (2) 
{"is_sidechain": [false], "free_energy": -6.539, "intermolecular_energy": -8.832, "internal_energy": 0.453}

$$$$
cand_046_out
     RDKit          3D

 39 41  0  0  0  0  0  0  0  0999 V2000
   36.4170   29.6190  -14.2730 C   0  0  0  0  0  0  0  0  0  0  0  0
   36.5360   29.2080  -15.5420 C   0  0  0  0  0  0  0  0  0  0  0  0
   37.5980   28.2980  -15.9980 C   0  0  0  0  0  0  0  0  0  0  0  0
   38.6490   27.9810  -15.1170 C   0  0  0  0  0  0  0  0  0  0  0  0
   39.6720   27.0920  -15.4790 C   0  0  0  0  0  0  0  0  0  0  0  0
   40.7720   26.8110  -14.5330 C   0  0  0  0  0  0  0  0  0  0  0  0
   41.8840   26.2490  -15.1490 O   0  0  0  0  0  0  0  0  0  0  0  0
   42.9800   25.9400  -14.3860 C   0  0  0  0  0  0  0  0  0  0  0  0
   44.0680   25.3650  -15.0430 C   0  0  0  0  0  0  0  0  0  0  0  0
   45.2180   25.0270  -14.3240 C   0  0  0  0  0  0  0  0  0  0  0  0
   45.2790   25.2670  -12.9500 C   0  0  0  0  0  0  0  0  0  0  0  0
   44.1920   25.8420  -12.2970 C   0  0  0  0  0  0  0  0  0  0  0  0
   44.3200   26.0480  -10.9500 O   0  0  0  0  0  0  0  0  0  0  0  0
   43.0420   26.1770  -13.0160 C   0  0  0  0  0  0  0  0  0  0  0  0
   41.8770   26.7840  -12.3680 C   0  0  0  0  0  0  0  0  0  0  0  0
   41.8580   27.0300  -11.1640 O   0  0  0  0  0  0  0  0  0  0  0  0
   40.7060   27.0960  -13.2180 C   0  0  0  0  0  0  0  0  0  0  0  0
   39.6170   27.6810  -12.6000 O   0  0  0  0  0  0  0  0  0  0  0  0
   39.6350   26.5220  -16.7550 C   0  0  0  0  0  0  0  0  0  0  0  0
   38.5940   26.8190  -17.6380 C   0  0  0  0  0  0  0  0  0  0  0  0
   37.5660   27.7060  -17.2760 C   0  0  0  0  0  0  0  0  0  0  0  0
   36.4670   27.9750  -18.2780 C   0  0  0  0  0  0  0  0  0  0  0  0
   35.7530   29.2900  -18.0030 C   0  0  0  0  0  0  0  0  0  0  0  0
   35.6015   30.3008  -13.9899 H   0  0  0  0  0  0  0  0  0  0  0  0
   37.1347   29.2748  -13.5138 H   0  0  0  0  0  0  0  0  0  0  0  0
   35.8038   29.5685  -16.2794 H   0  0  0  0  0  0  0  0  0  0  0  0
   38.6687   28.4424  -14.1186 H   0  0  0  0  0  0  0  0  0  0  0  0
   44.0209   25.1778  -16.1259 H   0  0  0  0  0  0  0  0  0  0  0  0
   46.0755   24.5716  -14.8410 H   0  0  0  0  0  0  0  0  0  0  0  0
   46.1844   25.0022  -12.3842 H   0  0  0  0  0  0  0  0  0  0  0  0
   44.3490   26.9200  -10.6110 H   0  0  0  0  0  0  0  0  0  0  0  0
   39.6320   27.8360  -11.6750 H   0  0  0  0  0  0  0  0  0  0  0  0
   40.4336   25.8328  -17.0668 H   0  0  0  0  0  0  0  0  0  0  0  0
   38.5788   26.3507  -18.6332 H   0  0  0  0  0  0  0  0  0  0  0  0
   36.9069   28.0139  -19.2855 H   0  0  0  0  0  0  0  0  0  0  0  0
   35.7280   27.1642  -18.1970 H   0  0  0  0  0  0  0  0  0  0  0  0
   35.6704   29.4422  -16.9167 H   0  0  0  0  0  0  0  0  0  0  0  0
   36.3255   30.1179  -18.4467 H   0  0  0  0  0  0  0  0  0  0  0  0
   34.7469   29.2607  -18.4467 H   0  0  0  0  0  0  0  0  0  0  0  0
  1  2  2  0
  2  3  1  0
  3  4  2  0
  4  5  1  0
  5  6  1  0
  6  7  1  0
  7  8  1  0
  8  9  2  0
  9 10  1  0
 10 11  2  0
 11 12  1  0
 12 13  1  0
 12 14  2  0
 14 15  1  0
 15 16  2  0
 15 17  1  0
 17 18  1  0
  5 19  2  0
 19 20  1  0
 20 21  2  0
 21 22  1  0
 22 23  1  0
 21  3  1  0
 17  6  2  0
 14  8  1  0
  1 24  1  0
  1 25  1  0
  2 26  1  0
  4 27  1  0
  9 28  1  0
 10 29  1  0
 11 30  1  0
 13 31  1  0
 18 32  1  0
 19 33  1  0
 20 34  1  0
 22 35  1  0
 22 36  1  0
 23 37  1  0
 23 38  1  0
 23 39  1  0
M  END
>  <meeko>  (3) 
{"is_sidechain": [false], "free_energy": -5.027, "intermolecular_energy": -7.732, "internal_energy": 1.219}

$$$$
cand_046_out
     RDKit          3D

 39 41  0  0  0  0  0  0  0  0999 V2000
   36.6500   26.5270  -19.7980 C   0  0  0  0  0  0  0  0  0  0  0  0
   37.7200   26.5080  -18.9940 C   0  0  0  0  0  0  0  0  0  0  0  0
   37.7890   27.2540  -17.7280 C   0  0  0  0  0  0  0  0  0  0  0  0
   38.8300   26.9690  -16.8250 C   0  0  0  0  0  0  0  0  0  0  0  0
   38.9720   27.6700  -15.6180 C   0  0  0  0  0  0  0  0  0  0  0  0
   40.0640   27.3150  -14.6850 C   0  0  0  0  0  0  0  0  0  0  0  0
   41.1000   26.6250  -15.3050 O   0  0  0  0  0  0  0  0  0  0  0  0
   42.1790   26.2370  -14.5540 C   0  0  0  0  0  0  0  0  0  0  0  0
   43.1890   25.5340  -15.2140 C   0  0  0  0  0  0  0  0  0  0  0  0
   44.3180   25.1100  -14.5080 C   0  0  0  0  0  0  0  0  0  0  0  0
   44.4370   25.3910  -13.1460 C   0  0  0  0  0  0  0  0  0  0  0  0
   43.4290   26.0920  -12.4900 C   0  0  0  0  0  0  0  0  0  0  0  0
   43.6100   26.3320  -11.1550 O   0  0  0  0  0  0  0  0  0  0  0  0
   42.2990   26.5140  -13.1970 C   0  0  0  0  0  0  0  0  0  0  0  0
   41.2160   27.2550  -12.5460 C   0  0  0  0  0  0  0  0  0  0  0  0
   41.2510   27.5440  -11.3520 O   0  0  0  0  0  0  0  0  0  0  0  0
   40.0600   27.6510  -13.3820 C   0  0  0  0  0  0  0  0  0  0  0  0
   39.0490   28.3610  -12.7610 O   0  0  0  0  0  0  0  0  0  0  0  0
   38.0410   28.6680  -15.3160 C   0  0  0  0  0  0  0  0  0  0  0  0
   37.0070   28.9690  -16.2050 C   0  0  0  0  0  0  0  0  0  0  0  0
   36.8660   28.2710  -17.4170 C   0  0  0  0  0  0  0  0  0  0  0  0
   35.7280   28.6570  -18.3360 C   0  0  0  0  0  0  0  0  0  0  0  0
   35.1290   30.0060  -17.9670 C   0  0  0  0  0  0  0  0  0  0  0  0
   36.6548   25.9488  -20.7338 H   0  0  0  0  0  0  0  0  0  0  0  0
   35.7659   27.1208  -19.5230 H   0  0  0  0  0  0  0  0  0  0  0  0
   38.5898   25.9054  -19.2945 H   0  0  0  0  0  0  0  0  0  0  0  0
   39.5512   26.1760  -17.0719 H   0  0  0  0  0  0  0  0  0  0  0  0
   43.0961   25.3143  -16.2878 H   0  0  0  0  0  0  0  0  0  0  0  0
   45.1135   24.5544  -15.0261 H   0  0  0  0  0  0  0  0  0  0  0  0
   45.3269   25.0587  -12.5913 H   0  0  0  0  0  0  0  0  0  0  0  0
   43.3340   25.6970  -10.5240 H   0  0  0  0  0  0  0  0  0  0  0  0
   38.3510   28.7240  -13.2710 H   0  0  0  0  0  0  0  0  0  0  0  0
   38.1237   29.2215  -14.3690 H   0  0  0  0  0  0  0  0  0  0  0  0
   36.2912   29.7652  -15.9528 H   0  0  0  0  0  0  0  0  0  0  0  0
   36.1061   28.7067  -19.3678 H   0  0  0  0  0  0  0  0  0  0  0  0
   34.9391   27.8968  -18.2372 H   0  0  0  0  0  0  0  0  0  0  0  0
   35.0867   30.1012  -16.8719 H   0  0  0  0  0  0  0  0  0  0  0  0
   35.7545   30.8105  -18.3811 H   0  0  0  0  0  0  0  0  0  0  0  0
   34.1127   30.0816  -18.3811 H   0  0  0  0  0  0  0  0  0  0  0  0
  1  2  2  0
  2  3  1  0
  3  4  2  0
  4  5  1  0
  5  6  1  0
  6  7  1  0
  7  8  1  0
  8  9  2  0
  9 10  1  0
 10 11  2  0
 11 12  1  0
 12 13  1  0
 12 14  2  0
 14 15  1  0
 15 16  2  0
 15 17  1  0
 17 18  1  0
  5 19  2  0
 19 20  1  0
 20 21  2  0
 21 22  1  0
 22 23  1  0
 21  3  1  0
 17  6  2  0
 14  8  1  0
  1 24  1  0
  1 25  1  0
  2 26  1  0
  4 27  1  0
  9 28  1  0
 10 29  1  0
 11 30  1  0
 13 31  1  0
 18 32  1  0
 19 33  1  0
 20 34  1  0
 22 35  1  0
 22 36  1  0
 23 37  1  0
 23 38  1  0
 23 39  1  0
M  END
>  <meeko>  (4) 
{"is_sidechain": [false], "free_energy": -4.662, "intermolecular_energy": -6.95, "internal_energy": 0.886}

$$$$
cand_046_out
     RDKit          3D

 39 41  0  0  0  0  0  0  0  0999 V2000
   42.5520   26.6000  -10.8300 C   0  0  0  0  0  0  0  0  0  0  0  0
   43.2620   26.7390  -11.9570 C   0  0  0  0  0  0  0  0  0  0  0  0
   42.7620   26.3370  -13.2800 C   0  0  0  0  0  0  0  0  0  0  0  0
   41.5760   26.9180  -13.7660 C   0  0  0  0  0  0  0  0  0  0  0  0
   41.0660   26.6030  -15.0350 C   0  0  0  0  0  0  0  0  0  0  0  0
   39.8010   27.2160  -15.4920 C   0  0  0  0  0  0  0  0  0  0  0  0
   39.3950   26.7510  -16.7370 O   0  0  0  0  0  0  0  0  0  0  0  0
   38.2330   27.2360  -17.2800 C   0  0  0  0  0  0  0  0  0  0  0  0
   37.8710   26.7520  -18.5380 C   0  0  0  0  0  0  0  0  0  0  0  0
   36.6980   27.2040  -19.1480 C   0  0  0  0  0  0  0  0  0  0  0  0
   35.8880   28.1370  -18.4990 C   0  0  0  0  0  0  0  0  0  0  0  0
   36.2510   28.6190  -17.2440 C   0  0  0  0  0  0  0  0  0  0  0  0
   35.4120   29.5320  -16.6650 O   0  0  0  0  0  0  0  0  0  0  0  0
   37.4260   28.1670  -16.6350 C   0  0  0  0  0  0  0  0  0  0  0  0
   37.8440   28.6470  -15.3170 C   0  0  0  0  0  0  0  0  0  0  0  0
   37.1810   29.4640  -14.6820 O   0  0  0  0  0  0  0  0  0  0  0  0
   39.1080   28.1110  -14.7630 C   0  0  0  0  0  0  0  0  0  0  0  0
   39.4870   28.5600  -13.5110 O   0  0  0  0  0  0  0  0  0  0  0  0
   41.7620   25.6790  -15.8190 C   0  0  0  0  0  0  0  0  0  0  0  0
   42.9460   25.1000  -15.3550 C   0  0  0  0  0  0  0  0  0  0  0  0
   43.4600   25.4170  -14.0860 C   0  0  0  0  0  0  0  0  0  0  0  0
   44.7500   24.7580  -13.6520 C   0  0  0  0  0  0  0  0  0  0  0  0
   45.9570   25.3300  -14.3820 C   0  0  0  0  0  0  0  0  0  0  0  0
   42.9792   26.9193   -9.8679 H   0  0  0  0  0  0  0  0  0  0  0  0
   41.5417   26.1666  -10.8664 H   0  0  0  0  0  0  0  0  0  0  0  0
   44.2694   27.1756  -11.8896 H   0  0  0  0  0  0  0  0  0  0  0  0
   41.0345   27.6379  -13.1347 H   0  0  0  0  0  0  0  0  0  0  0  0
   38.5085   26.0154  -19.0488 H   0  0  0  0  0  0  0  0  0  0  0  0
   36.4128   26.8243  -20.1402 H   0  0  0  0  0  0  0  0  0  0  0  0
   34.9636   28.4913  -18.9785 H   0  0  0  0  0  0  0  0  0  0  0  0
   34.7140   29.2420  -16.1140 H   0  0  0  0  0  0  0  0  0  0  0  0
   39.5770   27.9530  -12.8030 H   0  0  0  0  0  0  0  0  0  0  0  0
   41.3740   25.4048  -16.8111 H   0  0  0  0  0  0  0  0  0  0  0  0
   43.4846   24.3843  -15.9935 H   0  0  0  0  0  0  0  0  0  0  0  0
   44.8821   24.9138  -12.5711 H   0  0  0  0  0  0  0  0  0  0  0  0
   44.6826   23.6872  -13.8946 H   0  0  0  0  0  0  0  0  0  0  0  0
   46.6972   25.6808  -13.6478 H   0  0  0  0  0  0  0  0  0  0  0  0
   46.4077   24.5497  -15.0129 H   0  0  0  0  0  0  0  0  0  0  0  0
   45.6384   26.1729  -15.0129 H   0  0  0  0  0  0  0  0  0  0  0  0
  1  2  2  0
  2  3  1  0
  3  4  2  0
  4  5  1  0
  5  6  1  0
  6  7  1  0
  7  8  1  0
  8  9  2  0
  9 10  1  0
 10 11  2  0
 11 12  1  0
 12 13  1  0
 12 14  2  0
 14 15  1  0
 15 16  2  0
 15 17  1  0
 17 18  1  0
  5 19  2  0
 19 20  1  0
 20 21  2  0
 21 22  1  0
 22 23  1  0
 21  3  1  0
 17  6  2  0
 14  8  1  0
  1 24  1  0
  1 25  1  0
  2 26  1  0
  4 27  1  0
  9 28  1  0
 10 29  1  0
 11 30  1  0
 13 31  1  0
 18 32  1  0
 19 33  1  0
 20 34  1  0
 22 35  1  0
 22 36  1  0
 23 37  1  0
 23 38  1  0
 23 39  1  0
M  END
>  <meeko>  (5) 
{"is_sidechain": [false], "free_energy": -4.654, "intermolecular_energy": -6.116, "internal_energy": 0.063}

$$$$
cand_046_out
     RDKit          3D

 39 41  0  0  0  0  0  0  0  0999 V2000
   45.9870   25.0160  -14.6070 C   0  0  0  0  0  0  0  0  0  0  0  0
   44.6920   24.6870  -14.5220 C   0  0  0  0  0  0  0  0  0  0  0  0
   43.6590   25.6020  -14.0150 C   0  0  0  0  0  0  0  0  0  0  0  0
   42.5410   25.8840  -14.8220 C   0  0  0  0  0  0  0  0  0  0  0  0
   41.5040   26.7200  -14.3820 C   0  0  0  0  0  0  0  0  0  0  0  0
   40.3640   27.0120  -15.2760 C   0  0  0  0  0  0  0  0  0  0  0  0
   39.4320   27.8680  -14.7010 O   0  0  0  0  0  0  0  0  0  0  0  0
   38.3230   28.2240  -15.4240 C   0  0  0  0  0  0  0  0  0  0  0  0
   37.4070   29.0740  -14.8030 C   0  0  0  0  0  0  0  0  0  0  0  0
   36.2560   29.4770  -15.4850 C   0  0  0  0  0  0  0  0  0  0  0  0
   36.0230   29.0310  -16.7870 C   0  0  0  0  0  0  0  0  0  0  0  0
   36.9390   28.1840  -17.4050 C   0  0  0  0  0  0  0  0  0  0  0  0
   36.6470   27.7840  -18.6820 O   0  0  0  0  0  0  0  0  0  0  0  0
   38.0890   27.7800  -16.7210 C   0  0  0  0  0  0  0  0  0  0  0  0
   39.0770   26.8900  -17.3340 C   0  0  0  0  0  0  0  0  0  0  0  0
   38.9440   26.4610  -18.4790 O   0  0  0  0  0  0  0  0  0  0  0  0
   40.2580   26.5170  -16.5240 C   0  0  0  0  0  0  0  0  0  0  0  0
   41.1920   25.6870  -17.1170 O   0  0  0  0  0  0  0  0  0  0  0  0
   41.6050   27.2880  -13.1080 C   0  0  0  0  0  0  0  0  0  0  0  0
   42.7030   27.0110  -12.2900 C   0  0  0  0  0  0  0  0  0  0  0  0
   43.7400   26.1700  -12.7280 C   0  0  0  0  0  0  0  0  0  0  0  0
   44.8950   25.9080  -11.7870 C   0  0  0  0  0  0  0  0  0  0  0  0
   46.0610   26.8510  -12.0390 C   0  0  0  0  0  0  0  0  0  0  0  0
   46.7150   24.2884  -14.9952 H   0  0  0  0  0  0  0  0  0  0  0  0
   46.3230   26.0139  -14.2887 H   0  0  0  0  0  0  0  0  0  0  0  0
   44.3857   23.6820  -14.8477 H   0  0  0  0  0  0  0  0  0  0  0  0
   42.4786   25.4367  -15.8250 H   0  0  0  0  0  0  0  0  0  0  0  0
   37.5909   29.4265  -13.7774 H   0  0  0  0  0  0  0  0  0  0  0  0
   35.5330   30.1462  -14.9956 H   0  0  0  0  0  0  0  0  0  0  0  0
   35.1169   29.3483  -17.3240 H   0  0  0  0  0  0  0  0  0  0  0  0
   37.2920   27.8660  -19.3550 H   0  0  0  0  0  0  0  0  0  0  0  0
   42.1060   25.8760  -17.0320 H   0  0  0  0  0  0  0  0  0  0  0  0
   40.8121   27.9594  -12.7466 H   0  0  0  0  0  0  0  0  0  0  0  0
   42.7567   27.4586  -11.2866 H   0  0  0  0  0  0  0  0  0  0  0  0
   44.5472   26.0421  -10.7521 H   0  0  0  0  0  0  0  0  0  0  0  0
   45.2465   24.8799  -11.9589 H   0  0  0  0  0  0  0  0  0  0  0  0
   46.4758   27.1865  -11.0770 H   0  0  0  0  0  0  0  0  0  0  0  0
   46.8401   26.3260  -12.6111 H   0  0  0  0  0  0  0  0  0  0  0  0
   45.7106   27.7227  -12.6111 H   0  0  0  0  0  0  0  0  0  0  0  0
  1  2  2  0
  2  3  1  0
  3  4  2  0
  4  5  1  0
  5  6  1  0
  6  7  1  0
  7  8  1  0
  8  9  2  0
  9 10  1  0
 10 11  2  0
 11 12  1  0
 12 13  1  0
 12 14  2  0
 14 15  1  0
 15 16  2  0
 15 17  1  0
 17 18  1  0
  5 19  2  0
 19 20  1  0
 20 21  2  0
 21 22  1  0
 22 23  1  0
 21  3  1  0
 17  6  2  0
 14  8  1  0
  1 24  1  0
  1 25  1  0
  2 26  1  0
  4 27  1  0
  9 28  1  0
 10 29  1  0
 11 30  1  0
 13 31  1  0
 18 32  1  0
 19 33  1  0
 20 34  1  0
 22 35  1  0
 22 36  1  0
 23 37  1  0
 23 38  1  0
 23 39  1  0
M  END
>  <meeko>  (6) 
{"is_sidechain": [false], "free_energy": -4.613, "intermolecular_energy": -6.829, "internal_energy": 0.826}

$$$$
cand_046_out
     RDKit          3D

 39 41  0  0  0  0  0  0  0  0999 V2000
   45.2250   24.3300  -14.1670 C   0  0  0  0  0  0  0  0  0  0  0  0
   44.2770   25.0820  -14.7420 C   0  0  0  0  0  0  0  0  0  0  0  0
   43.3290   25.9060  -13.9770 C   0  0  0  0  0  0  0  0  0  0  0  0
   42.1410   26.3330  -14.5980 C   0  0  0  0  0  0  0  0  0  0  0  0
   41.1800   27.0910  -13.9120 C   0  0  0  0  0  0  0  0  0  0  0  0
   39.9600   27.5430  -14.6150 C   0  0  0  0  0  0  0  0  0  0  0  0
   39.7880   26.9260  -15.8490 O   0  0  0  0  0  0  0  0  0  0  0  0
   38.6930   27.2520  -16.6060 C   0  0  0  0  0  0  0  0  0  0  0  0
   38.5680   26.6190  -17.8430 C   0  0  0  0  0  0  0  0  0  0  0  0
   37.4740   26.9050  -18.6650 C   0  0  0  0  0  0  0  0  0  0  0  0
   36.5070   27.8210  -18.2470 C   0  0  0  0  0  0  0  0  0  0  0  0
   36.6340   28.4510  -17.0120 C   0  0  0  0  0  0  0  0  0  0  0  0
   35.6510   29.3380  -16.6660 O   0  0  0  0  0  0  0  0  0  0  0  0
   37.7290   28.1660  -16.1920 C   0  0  0  0  0  0  0  0  0  0  0  0
   37.9010   28.8060  -14.8860 C   0  0  0  0  0  0  0  0  0  0  0  0
   37.0900   29.6180  -14.4480 O   0  0  0  0  0  0  0  0  0  0  0  0
   39.0990   28.4390  -14.0970 C   0  0  0  0  0  0  0  0  0  0  0  0
   39.2450   29.0380  -12.8600 O   0  0  0  0  0  0  0  0  0  0  0  0
   41.4310   27.4310  -12.5790 C   0  0  0  0  0  0  0  0  0  0  0  0
   42.6010   27.0080  -11.9450 C   0  0  0  0  0  0  0  0  0  0  0  0
   43.5630   26.2440  -12.6290 C   0  0  0  0  0  0  0  0  0  0  0  0
   44.8020   25.8140  -11.8780 C   0  0  0  0  0  0  0  0  0  0  0  0
   46.0150   26.6530  -12.2510 C   0  0  0  0  0  0  0  0  0  0  0  0
   45.9070   23.7332  -14.7905 H   0  0  0  0  0  0  0  0  0  0  0  0
   45.3213   24.3093  -13.0714 H   0  0  0  0  0  0  0  0  0  0  0  0
   44.2041   25.0832  -15.8396 H   0  0  0  0  0  0  0  0  0  0  0  0
   41.9607   26.0654  -15.6496 H   0  0  0  0  0  0  0  0  0  0  0  0
   39.3292   25.8959  -18.1711 H   0  0  0  0  0  0  0  0  0  0  0  0
   37.3751   26.4082  -19.6414 H   0  0  0  0  0  0  0  0  0  0  0  0
   35.6453   28.0448  -18.8930 H   0  0  0  0  0  0  0  0  0  0  0  0
   34.7510   29.1140  -16.7970 H   0  0  0  0  0  0  0  0  0  0  0  0
   39.1100   28.5380  -12.0790 H   0  0  0  0  0  0  0  0  0  0  0  0
   40.6997   28.0375  -12.0246 H   0  0  0  0  0  0  0  0  0  0  0  0
   42.7730   27.2771  -10.8924 H   0  0  0  0  0  0  0  0  0  0  0  0
   44.6169   25.9177  -10.7987 H   0  0  0  0  0  0  0  0  0  0  0  0
   45.0163   24.7690  -12.1466 H   0  0  0  0  0  0  0  0  0  0  0  0
   46.5165   26.9999  -11.3355 H   0  0  0  0  0  0  0  0  0  0  0  0
   46.7137   26.0442  -12.8436 H   0  0  0  0  0  0  0  0  0  0  0  0
   45.6919   27.5216  -12.8436 H   0  0  0  0  0  0  0  0  0  0  0  0
  1  2  2  0
  2  3  1  0
  3  4  2  0
  4  5  1  0
  5  6  1  0
  6  7  1  0
  7  8  1  0
  8  9  2  0
  9 10  1  0
 10 11  2  0
 11 12  1  0
 12 13  1  0
 12 14  2  0
 14 15  1  0
 15 16  2  0
 15 17  1  0
 17 18  1  0
  5 19  2  0
 19 20  1  0
 20 21  2  0
 21 22  1  0
 22 23  1  0
 21  3  1  0
 17  6  2  0
 14  8  1  0
  1 24  1  0
  1 25  1  0
  2 26  1  0
  4 27  1  0
  9 28  1  0
 10 29  1  0
 11 30  1  0
 13 31  1  0
 18 32  1  0
 19 33  1  0
 20 34  1  0
 22 35  1  0
 22 36  1  0
 23 37  1  0
 23 38  1  0
 23 39  1  0
M  END
>  <meeko>  (7) 
{"is_sidechain": [false], "free_energy": -4.547, "intermolecular_energy": -7.345, "internal_energy": 1.423}

$$$$
cand_046_out
     RDKit          3D

 39 41  0  0  0  0  0  0  0  0999 V2000
   43.9940   24.3890  -14.1330 C   0  0  0  0  0  0  0  0  0  0  0  0
   43.6120   25.5370  -14.7080 C   0  0  0  0  0  0  0  0  0  0  0  0
   42.3860   26.2570  -14.3350 C   0  0  0  0  0  0  0  0  0  0  0  0
   41.3610   26.3980  -15.2880 C   0  0  0  0  0  0  0  0  0  0  0  0
   40.1530   27.0430  -14.9820 C   0  0  0  0  0  0  0  0  0  0  0  0
   39.1150   27.1950  -16.0250 C   0  0  0  0  0  0  0  0  0  0  0  0
   38.2460   28.2490  -15.7710 O   0  0  0  0  0  0  0  0  0  0  0  0
   37.2350   28.5040  -16.6620 C   0  0  0  0  0  0  0  0  0  0  0  0
   36.3770   29.5630  -16.3600 C   0  0  0  0  0  0  0  0  0  0  0  0
   35.3270   29.8770  -17.2270 C   0  0  0  0  0  0  0  0  0  0  0  0
   35.1370   29.1350  -18.3940 C   0  0  0  0  0  0  0  0  0  0  0  0
   35.9940   28.0790  -18.6920 C   0  0  0  0  0  0  0  0  0  0  0  0
   35.7500   27.3930  -19.8510 O   0  0  0  0  0  0  0  0  0  0  0  0
   37.0440   27.7640  -17.8240 C   0  0  0  0  0  0  0  0  0  0  0  0
   37.9680   26.6630  -18.1000 C   0  0  0  0  0  0  0  0  0  0  0  0
   37.8680   25.9670  -19.1090 O   0  0  0  0  0  0  0  0  0  0  0  0
   39.0420   26.4070  -17.1140 C   0  0  0  0  0  0  0  0  0  0  0  0
   39.9180   25.3740  -17.3910 O   0  0  0  0  0  0  0  0  0  0  0  0
   39.9830   27.5600  -13.6950 C   0  0  0  0  0  0  0  0  0  0  0  0
   40.9870   27.4200  -12.7340 C   0  0  0  0  0  0  0  0  0  0  0  0
   42.1970   26.7710  -13.0370 C   0  0  0  0  0  0  0  0  0  0  0  0
   43.2360   26.6480  -11.9450 C   0  0  0  0  0  0  0  0  0  0  0  0
   44.5400   27.3390  -12.3190 C   0  0  0  0  0  0  0  0  0  0  0  0
   44.9230   23.8953  -14.4545 H   0  0  0  0  0  0  0  0  0  0  0  0
   43.3787   23.9400  -13.3394 H   0  0  0  0  0  0  0  0  0  0  0  0
   44.2475   25.9621  -15.4988 H   0  0  0  0  0  0  0  0  0  0  0  0
   41.5103   25.9921  -16.2994 H   0  0  0  0  0  0  0  0  0  0  0  0
   36.5272   30.1491  -15.4414 H   0  0  0  0  0  0  0  0  0  0  0  0
   34.6492   30.7101  -16.9895 H   0  0  0  0  0  0  0  0  0  0  0  0
   34.3116   29.3842  -19.0770 H   0  0  0  0  0  0  0  0  0  0  0  0
   34.9010   27.4270  -20.2440 H   0  0  0  0  0  0  0  0  0  0  0  0
   40.4090   24.9780  -16.6980 H   0  0  0  0  0  0  0  0  0  0  0  0
   39.0500   28.0820  -13.4363 H   0  0  0  0  0  0  0  0  0  0  0  0
   40.8284   27.8242  -11.7233 H   0  0  0  0  0  0  0  0  0  0  0  0
   42.8417   27.1066  -11.0262 H   0  0  0  0  0  0  0  0  0  0  0  0
   43.4481   25.5789  -11.7963 H   0  0  0  0  0  0  0  0  0  0  0  0
   45.0792   27.6247  -11.4038 H   0  0  0  0  0  0  0  0  0  0  0  0
   45.1620   26.6522  -12.9117 H   0  0  0  0  0  0  0  0  0  0  0  0
   44.3210   28.2394  -12.9117 H   0  0  0  0  0  0  0  0  0  0  0  0
  1  2  2  0
  2  3  1  0
  3  4  2  0
  4  5  1  0
  5  6  1  0
  6  7  1  0
  7  8  1  0
  8  9  2  0
  9 10  1  0
 10 11  2  0
 11 12  1  0
 12 13  1  0
 12 14  2  0
 14 15  1  0
 15 16  2  0
 15 17  1  0
 17 18  1  0
  5 19  2  0
 19 20  1  0
 20 21  2  0
 21 22  1  0
 22 23  1  0
 21  3  1  0
 17  6  2  0
 14  8  1  0
  1 24  1  0
  1 25  1  0
  2 26  1  0
  4 27  1  0
  9 28  1  0
 10 29  1  0
 11 30  1  0
 13 31  1  0
 18 32  1  0
 19 33  1  0
 20 34  1  0
 22 35  1  0
 22 36  1  0
 23 37  1  0
 23 38  1  0
 23 39  1  0
M  END
>  <meeko>  (8) 
{"is_sidechain": [false], "free_energy": -4.127, "intermolecular_energy": -6.089, "internal_energy": 0.686}

$$$$
