cand_027_out
     RDKit          3D

 44 46  0  0  0  0  0  0  0  0999 V2000
   36.7840   27.1450  -18.9170 C   0  0  0  0  0  0  0  0  0  0  0  0
   37.7970   27.1070  -17.8040 C   0  0  0  0  0  0  0  0  0  0  0  0
   38.6840   26.0090  -17.8330 C   0  0  0  0  0  0  0  0  0  0  0  0
   39.6790   25.8400  -16.8740 C   0  0  0  0  0  0  0  0  0  0  0  0
   39.8240   26.7700  -15.8530 C   0  0  0  0  0  0  0  0  0  0  0  0
   40.8560   26.6200  -14.8050 C   0  0  0  0  0  0  0  0  0  0  0  0
   42.0230   26.0280  -15.2770 O   0  0  0  0  0  0  0  0  0  0  0  0
   43.0640   25.8270  -14.4070 C   0  0  0  0  0  0  0  0  0  0  0  0
   44.2190   25.2420  -14.9260 C   0  0  0  0  0  0  0  0  0  0  0  0
   45.3160   25.0080  -14.0940 C   0  0  0  0  0  0  0  0  0  0  0  0
   45.2570   25.3570  -12.7430 C   0  0  0  0  0  0  0  0  0  0  0  0
   44.1020   25.9400  -12.2280 C   0  0  0  0  0  0  0  0  0  0  0  0
   44.1120   26.2570  -10.8970 O   0  0  0  0  0  0  0  0  0  0  0  0
   43.0060   26.1760  -13.0610 C   0  0  0  0  0  0  0  0  0  0  0  0
   41.7740   26.7860  -12.5600 C   0  0  0  0  0  0  0  0  0  0  0  0
   41.6430   27.1150  -11.3830 O   0  0  0  0  0  0  0  0  0  0  0  0
   40.6710   26.9980  -13.5260 C   0  0  0  0  0  0  0  0  0  0  0  0
   39.5070   27.5620  -13.0390 O   0  0  0  0  0  0  0  0  0  0  0  0
   38.9270   27.8530  -15.8050 C   0  0  0  0  0  0  0  0  0  0  0  0
   37.8850   28.0540  -16.7490 C   0  0  0  0  0  0  0  0  0  0  0  0
   36.9570   29.2900  -16.5920 C   0  0  0  0  0  0  0  0  0  0  0  0
   37.6690   30.6250  -16.9080 C   0  0  0  0  0  0  0  0  0  0  0  0
   36.3960   29.3200  -15.1540 C   0  0  0  0  0  0  0  0  0  0  0  0
   35.7260   29.2620  -17.5430 C   0  0  0  0  0  0  0  0  0  0  0  0
   35.7711   27.1830  -18.4897 H   0  0  0  0  0  0  0  0  0  0  0  0
   36.9540   28.0374  -19.5373 H   0  0  0  0  0  0  0  0  0  0  0  0
   36.8867   26.2424  -19.5373 H   0  0  0  0  0  0  0  0  0  0  0  0
   38.5860   25.2649  -18.6372 H   0  0  0  0  0  0  0  0  0  0  0  0
   40.3502   24.9700  -16.9250 H   0  0  0  0  0  0  0  0  0  0  0  0
   44.2658   24.9652  -15.9896 H   0  0  0  0  0  0  0  0  0  0  0  0
   46.2277   24.5482  -14.5033 H   0  0  0  0  0  0  0  0  0  0  0  0
   46.1207   25.1718  -12.0874 H   0  0  0  0  0  0  0  0  0  0  0  0
   43.3190   26.5160  -10.4710 H   0  0  0  0  0  0  0  0  0  0  0  0
   39.3600   28.4830  -13.1290 H   0  0  0  0  0  0  0  0  0  0  0  0
   39.0390   28.5846  -14.9912 H   0  0  0  0  0  0  0  0  0  0  0  0
   37.9377   31.1288  -15.9678 H   0  0  0  0  0  0  0  0  0  0  0  0
   38.5805   30.4255  -17.4906 H   0  0  0  0  0  0  0  0  0  0  0  0
   36.9955   31.2708  -17.4906 H   0  0  0  0  0  0  0  0  0  0  0  0
   37.2274   29.2755  -14.4351 H   0  0  0  0  0  0  0  0  0  0  0  0
   35.8284   30.2498  -15.0012 H   0  0  0  0  0  0  0  0  0  0  0  0
   35.7325   28.4561  -15.0012 H   0  0  0  0  0  0  0  0  0  0  0  0
   34.8021   29.2410  -16.9463 H   0  0  0  0  0  0  0  0  0  0  0  0
   35.7323   30.1605  -18.1775 H   0  0  0  0  0  0  0  0  0  0  0  0
   35.7732   28.3647  -18.1775 H   0  0  0  0  0  0  0  0  0  0  0  0
  1  2  1  0
  2  3  2  0
  3  4  1  0
  4  5  2  0
  5  6  1  0
  6  7  1  0
  7  8  1  0
  8  9  2  0
  9 10  1  0
 10 11  2  0
 11 12  1  0
 12 13  1  0
 12 14  2  0
 14 15  1  0
 15 16  2  0
 15 17  1  0
 17 18  1  0
  5 19  1  0
 19 20  2  0
 20 21  1  0
 21 22  1  0
 21 23  1  0
 21 24  1  0
 20  2  1  0
 17  6  2  0
 14  8  1  0
  1 25  1  0
  1 26  1  0
  1 27  1  0
  3 28  1  0
  4 29  1  0
  9 30  1  0
 10 31  1  0
 11 32  1  0
 13 33  1  0
 18 34  1  0
 19 35  1  0
 22 36  1  0
 22 37  1  0
 22 38  1  0
 23 39  1  0
 23 40  1  0
 23 41  1  0
 24 42  1  0
 24 43  1  0
 24 44  1  0
M  END
>  <meeko>  (1) 
{"is_sidechain": [false], "free_energy": -5.77, "intermolecular_energy": -6.782, "internal_energy": 0.702}

$$$$
cand_027_out
     RDKit          3D

 44 46  0  0  0  0  0  0  0  0999 V2000
   44.0210   25.9580  -10.7680 C   0  0  0  0  0  0  0  0  0  0  0  0
   42.9610   26.3710  -11.7540 C   0  0  0  0  0  0  0  0  0  0  0  0
   41.7460   26.8110  -11.1840 C   0  0  0  0  0  0  0  0  0  0  0  0
   40.6740   27.2300  -11.9670 C   0  0  0  0  0  0  0  0  0  0  0  0
   40.7830   27.2290  -13.3520 C   0  0  0  0  0  0  0  0  0  0  0  0
   39.6640   27.6510  -14.2210 C   0  0  0  0  0  0  0  0  0  0  0  0
   39.6500   26.9890  -15.4440 O   0  0  0  0  0  0  0  0  0  0  0  0
   38.6640   27.2870  -16.3480 C   0  0  0  0  0  0  0  0  0  0  0  0
   38.6820   26.5900  -17.5570 C   0  0  0  0  0  0  0  0  0  0  0  0
   37.7070   26.8460  -18.5240 C   0  0  0  0  0  0  0  0  0  0  0  0
   36.7150   27.8000  -18.2820 C   0  0  0  0  0  0  0  0  0  0  0  0
   36.7010   28.4930  -17.0750 C   0  0  0  0  0  0  0  0  0  0  0  0
   35.7020   29.4130  -16.9040 O   0  0  0  0  0  0  0  0  0  0  0  0
   37.6750   28.2360  -16.1080 C   0  0  0  0  0  0  0  0  0  0  0  0
   37.6960   28.9430  -14.8270 C   0  0  0  0  0  0  0  0  0  0  0  0
   36.8610   29.7990  -14.5430 O   0  0  0  0  0  0  0  0  0  0  0  0
   38.7690   28.5920  -13.8680 C   0  0  0  0  0  0  0  0  0  0  0  0
   38.7880   29.2760  -12.6660 O   0  0  0  0  0  0  0  0  0  0  0  0
   41.9830   26.7690  -13.9250 C   0  0  0  0  0  0  0  0  0  0  0  0
   43.0940   26.3130  -13.1670 C   0  0  0  0  0  0  0  0  0  0  0  0
   44.3670   25.8290  -13.9150 C   0  0  0  0  0  0  0  0  0  0  0  0
   45.4610   26.9160  -14.0130 C   0  0  0  0  0  0  0  0  0  0  0  0
   43.9710   25.3520  -15.3280 C   0  0  0  0  0  0  0  0  0  0  0  0
   45.0670   24.6230  -13.2240 C   0  0  0  0  0  0  0  0  0  0  0  0
   43.6463   26.1040   -9.7442 H   0  0  0  0  0  0  0  0  0  0  0  0
   44.2696   24.8972  -10.9197 H   0  0  0  0  0  0  0  0  0  0  0  0
   44.9217   26.5710  -10.9197 H   0  0  0  0  0  0  0  0  0  0  0  0
   41.6438   26.8230  -10.0888 H   0  0  0  0  0  0  0  0  0  0  0  0
   39.7405   27.5619  -11.4891 H   0  0  0  0  0  0  0  0  0  0  0  0
   39.4633   25.8397  -17.7482 H   0  0  0  0  0  0  0  0  0  0  0  0
   37.7201   26.2962  -19.4767 H   0  0  0  0  0  0  0  0  0  0  0  0
   35.9473   28.0027  -19.0433 H   0  0  0  0  0  0  0  0  0  0  0  0
   35.2650   29.7740  -17.6490 H   0  0  0  0  0  0  0  0  0  0  0  0
   38.6760   30.2060  -12.6550 H   0  0  0  0  0  0  0  0  0  0  0  0
   42.0652   26.7622  -15.0219 H   0  0  0  0  0  0  0  0  0  0  0  0
   45.7672   27.2203  -13.0012 H   0  0  0  0  0  0  0  0  0  0  0  0
   46.3303   26.5136  -14.5538 H   0  0  0  0  0  0  0  0  0  0  0  0
   45.0642   27.7879  -14.5538 H   0  0  0  0  0  0  0  0  0  0  0  0
   43.2703   24.5079  -15.2471 H   0  0  0  0  0  0  0  0  0  0  0  0
   43.4892   26.1777  -15.8721 H   0  0  0  0  0  0  0  0  0  0  0  0
   44.8713   25.0303  -15.8721 H   0  0  0  0  0  0  0  0  0  0  0  0
   45.0008   24.7371  -12.1319 H   0  0  0  0  0  0  0  0  0  0  0  0
   44.5707   23.6889  -13.5258 H   0  0  0  0  0  0  0  0  0  0  0  0
   46.1243   24.5906  -13.5258 H   0  0  0  0  0  0  0  0  0  0  0  0
  1  2  1  0
  2  3  2  0
  3  4  1  0
  4  5  2  0
  5  6  1  0
  6  7  1  0
  7  8  1  0
  8  9  2  0
  9 10  1  0
 10 11  2  0
 11 12  1  0
 12 13  1  0
 12 14  2  0
 14 15  1  0
 15 16  2  0
 15 17  1  0
 17 18  1  0
  5 19  1  0
 19 20  2  0
 20 21  1  0
 21 22  1  0
 21 23  1  0
 21 24  1  0
 20  2  1  0
 17  6  2  0
 14  8  1  0
  1 25  1  0
  1 26  1  0
  1 27  1  0
  3 28  1  0
  4 29  1  0
  9 30  1  0
 10 31  1  0
 11 32  1  0
 13 33  1  0
 18 34  1  0
 19 35  1  0
 22 36  1  0
 22 37  1  0
 22 38  1  0
 23 39  1  0
 23 40  1  0
 23 41  1  0
 24 42  1  0
 24 43  1  0
 24 44  1  0
M  END
>  <meeko>  (2) 
{"is_sidechain": [false], "free_energy": -5.197, "intermolecular_energy": -5.692, "internal_energy": 0.285}

$$$$
cand_027_out
     RDKit          3D

 44 46  0  0  0  0  0  0  0  0999 V2000
   44.0150   26.2410  -10.6300 C   0  0  0  0  0  0  0  0  0  0  0  0
   43.1010   26.4320  -11.8120 C   0  0  0  0  0  0  0  0  0  0  0  0
   41.7900   26.8510  -11.4980 C   0  0  0  0  0  0  0  0  0  0  0  0
   40.8330   27.0740  -12.4830 C   0  0  0  0  0  0  0  0  0  0  0  0
   41.1570   26.8910  -13.8220 C   0  0  0  0  0  0  0  0  0  0  0  0
   40.1660   27.1010  -14.8980 C   0  0  0  0  0  0  0  0  0  0  0  0
   39.1450   27.9690  -14.5300 O   0  0  0  0  0  0  0  0  0  0  0  0
   38.1550   28.2510  -15.4370 C   0  0  0  0  0  0  0  0  0  0  0  0
   37.1570   29.1370  -15.0290 C   0  0  0  0  0  0  0  0  0  0  0  0
   36.1180   29.4660  -15.9030 C   0  0  0  0  0  0  0  0  0  0  0  0
   36.0770   28.9080  -17.1830 C   0  0  0  0  0  0  0  0  0  0  0  0
   37.0740   28.0250  -17.5860 C   0  0  0  0  0  0  0  0  0  0  0  0
   36.9720   27.5150  -18.8520 O   0  0  0  0  0  0  0  0  0  0  0  0
   38.1140   27.6960  -16.7120 C   0  0  0  0  0  0  0  0  0  0  0  0
   39.1810   26.7720  -17.0960 C   0  0  0  0  0  0  0  0  0  0  0  0
   39.2110   26.2370  -18.2020 O   0  0  0  0  0  0  0  0  0  0  0  0
   40.2400   26.4950  -16.0980 C   0  0  0  0  0  0  0  0  0  0  0  0
   41.2360   25.6100  -16.4660 O   0  0  0  0  0  0  0  0  0  0  0  0
   42.4560   26.4490  -14.1380 C   0  0  0  0  0  0  0  0  0  0  0  0
   43.4570   26.1890  -13.1650 C   0  0  0  0  0  0  0  0  0  0  0  0
   44.8560   25.7060  -13.6370 C   0  0  0  0  0  0  0  0  0  0  0  0
   45.9180   26.8290  -13.6290 C   0  0  0  0  0  0  0  0  0  0  0  0
   44.7320   25.1100  -15.0550 C   0  0  0  0  0  0  0  0  0  0  0  0
   45.4570   24.5850  -12.7410 C   0  0  0  0  0  0  0  0  0  0  0  0
   43.4409   26.3610   -9.6994 H   0  0  0  0  0  0  0  0  0  0  0  0
   44.4521   25.2321  -10.6637 H   0  0  0  0  0  0  0  0  0  0  0  0
   44.8195   26.9904  -10.6637 H   0  0  0  0  0  0  0  0  0  0  0  0
   41.5171   27.0057  -10.4437 H   0  0  0  0  0  0  0  0  0  0  0  0
   39.8193   27.3954  -12.2017 H   0  0  0  0  0  0  0  0  0  0  0  0
   37.1884   29.5757  -14.0207 H   0  0  0  0  0  0  0  0  0  0  0  0
   35.3314   30.1651  -15.5829 H   0  0  0  0  0  0  0  0  0  0  0  0
   35.2583   29.1661  -17.8708 H   0  0  0  0  0  0  0  0  0  0  0  0
   37.7450   27.3530  -19.3550 H   0  0  0  0  0  0  0  0  0  0  0  0
   41.0930   25.0120  -17.1730 H   0  0  0  0  0  0  0  0  0  0  0  0
   42.7095   26.2966  -15.1975 H   0  0  0  0  0  0  0  0  0  0  0  0
   46.1662   27.0915  -12.5900 H   0  0  0  0  0  0  0  0  0  0  0  0
   46.8243   26.4802  -14.1456 H   0  0  0  0  0  0  0  0  0  0  0  0
   45.5192   27.7145  -14.1456 H   0  0  0  0  0  0  0  0  0  0  0  0
   44.5084   24.0354  -14.9828 H   0  0  0  0  0  0  0  0  0  0  0  0
   43.9203   25.6178  -15.5965 H   0  0  0  0  0  0  0  0  0  0  0  0
   45.6789   25.2519  -15.5965 H   0  0  0  0  0  0  0  0  0  0  0  0
   45.3164   24.8472  -11.6820 H   0  0  0  0  0  0  0  0  0  0  0  0
   44.9482   23.6332  -12.9538 H   0  0  0  0  0  0  0  0  0  0  0  0
   46.5313   24.4820  -12.9538 H   0  0  0  0  0  0  0  0  0  0  0  0
  1  2  1  0
  2  3  2  0
  3  4  1  0
  4  5  2  0
  5  6  1  0
  6  7  1  0
  7  8  1  0
  8  9  2  0
  9 10  1  0
 10 11  2  0
 11 12  1  0
 12 13  1  0
 12 14  2  0
 14 15  1  0
 15 16  2  0
 15 17  1  0
 17 18  1  0
  5 19  1  0
 19 20  2  0
 20 21  1  0
 21 22  1  0
 21 23  1  0
 21 24  1  0
 20  2  1  0
 17  6  2  0
 14  8  1  0
  1 25  1  0
  1 26  1  0
  1 27  1  0
  3 28  1  0
  4 29  1  0
  9 30  1  0
 10 31  1  0
 11 32  1  0
 13 33  1  0
 18 34  1  0
 19 35  1  0
 22 36  1  0
 22 37  1  0
 22 38  1  0
 23 39  1  0
 23 40  1  0
 23 41  1  0
 24 42  1  0
 24 43  1  0
 24 44  1  0
M  END
>  <meeko>  (3) 
{"is_sidechain": [false], "free_energy": -4.858, "intermolecular_energy": -5.375, "internal_energy": 0.367}

$$$$
cand_027_out
     RDKit          3D

 44 46  0  0  0  0  0  0  0  0999 V2000
   45.3120   23.9560  -13.2470 C   0  0  0  0  0  0  0  0  0  0  0  0
   44.1560   24.7070  -13.8520 C   0  0  0  0  0  0  0  0  0  0  0  0
   43.1020   23.9020  -14.3370 C   0  0  0  0  0  0  0  0  0  0  0  0
   41.9630   24.4530  -14.9180 C   0  0  0  0  0  0  0  0  0  0  0  0
   41.8370   25.8320  -15.0290 C   0  0  0  0  0  0  0  0  0  0  0  0
   40.6520   26.4570  -15.6540 C   0  0  0  0  0  0  0  0  0  0  0  0
   39.9320   27.2540  -14.7710 O   0  0  0  0  0  0  0  0  0  0  0  0
   38.8060   27.8930  -15.2210 C   0  0  0  0  0  0  0  0  0  0  0  0
   38.1220   28.6920  -14.3040 C   0  0  0  0  0  0  0  0  0  0  0  0
   36.9650   29.3690  -14.6960 C   0  0  0  0  0  0  0  0  0  0  0  0
   36.4930   29.2470  -16.0050 C   0  0  0  0  0  0  0  0  0  0  0  0
   37.1770   28.4490  -16.9170 C   0  0  0  0  0  0  0  0  0  0  0  0
   36.6590   28.3730  -18.1810 O   0  0  0  0  0  0  0  0  0  0  0  0
   38.3340   27.7720  -16.5250 C   0  0  0  0  0  0  0  0  0  0  0  0
   39.0830   26.9230  -17.4510 C   0  0  0  0  0  0  0  0  0  0  0  0
   38.7270   26.7610  -18.6170 O   0  0  0  0  0  0  0  0  0  0  0  0
   40.3000   26.2530  -16.9370 C   0  0  0  0  0  0  0  0  0  0  0  0
   40.9920   25.4430  -17.8180 O   0  0  0  0  0  0  0  0  0  0  0  0
   42.8950   26.6370  -14.5680 C   0  0  0  0  0  0  0  0  0  0  0  0
   44.0830   26.1190  -13.9880 C   0  0  0  0  0  0  0  0  0  0  0  0
   45.1830   27.1100  -13.5160 C   0  0  0  0  0  0  0  0  0  0  0  0
   45.3290   27.1630  -11.9780 C   0  0  0  0  0  0  0  0  0  0  0  0
   44.8630   28.5170  -14.0630 C   0  0  0  0  0  0  0  0  0  0  0  0
   46.6040   26.7480  -14.0360 C   0  0  0  0  0  0  0  0  0  0  0  0
   45.2441   24.0001  -12.1500 H   0  0  0  0  0  0  0  0  0  0  0  0
   45.2790   22.9064  -13.5745 H   0  0  0  0  0  0  0  0  0  0  0  0
   46.2576   24.4127  -13.5745 H   0  0  0  0  0  0  0  0  0  0  0  0
   43.1832   22.8082  -14.2534 H   0  0  0  0  0  0  0  0  0  0  0  0
   41.1626   23.7961  -15.2893 H   0  0  0  0  0  0  0  0  0  0  0  0
   38.4937   28.7886  -13.2732 H   0  0  0  0  0  0  0  0  0  0  0  0
   36.4251   29.9987  -13.9735 H   0  0  0  0  0  0  0  0  0  0  0  0
   35.5823   29.7808  -16.3143 H   0  0  0  0  0  0  0  0  0  0  0  0
   36.2010   29.1050  -18.5440 H   0  0  0  0  0  0  0  0  0  0  0  0
   41.9120   25.5660  -17.9430 H   0  0  0  0  0  0  0  0  0  0  0  0
   42.7962   27.7285  -14.6622 H   0  0  0  0  0  0  0  0  0  0  0  0
   44.3937   26.8235  -11.5090 H   0  0  0  0  0  0  0  0  0  0  0  0
   46.1551   26.5074  -11.6653 H   0  0  0  0  0  0  0  0  0  0  0  0
   45.5421   28.1959  -11.6653 H   0  0  0  0  0  0  0  0  0  0  0  0
   44.7054   29.2098  -13.2232 H   0  0  0  0  0  0  0  0  0  0  0  0
   45.7035   28.8713  -14.6778 H   0  0  0  0  0  0  0  0  0  0  0  0
   43.9519   28.4729  -14.6778 H   0  0  0  0  0  0  0  0  0  0  0  0
   47.2748   26.5771  -13.1811 H   0  0  0  0  0  0  0  0  0  0  0  0
   46.5492   25.8351  -14.6473 H   0  0  0  0  0  0  0  0  0  0  0  0
   46.9927   27.5758  -14.6473 H   0  0  0  0  0  0  0  0  0  0  0  0
  1  2  1  0
  2  3  2  0
  3  4  1  0
  4  5  2  0
  5  6  1  0
  6  7  1  0
  7  8  1  0
  8  9  2  0
  9 10  1  0
 10 11  2  0
 11 12  1  0
 12 13  1  0
 12 14  2  0
 14 15  1  0
 15 16  2  0
 15 17  1  0
 17 18  1  0
  5 19  1  0
 19 20  2  0
 20 21  1  0
 21 22  1  0
 21 23  1  0
 21 24  1  0
 20  2  1  0
 17  6  2  0
 14  8  1  0
  1 25  1  0
  1 26  1  0
  1 27  1  0
  3 28  1  0
  4 29  1  0
  9 30  1  0
 10 31  1  0
 11 32  1  0
 13 33  1  0
 18 34  1  0
 19 35  1  0
 22 36  1  0
 22 37  1  0
 22 38  1  0
 23 39  1  0
 23 40  1  0
 23 41  1  0
 24 42  1  0
 24 43  1  0
 24 44  1  0
M  END
>  <meeko>  (4) 
{"is_sidechain": [false], "free_energy": -4.567, "intermolecular_energy": -4.509, "internal_energy": -0.157}

$$$$
cand_027_out
     RDKit          3D

 44 46  0  0  0  0  0  0  0  0999 V2000
   45.6250   23.7910  -13.8800 C   0  0  0  0  0  0  0  0  0  0  0  0
   44.4170   24.6760  -14.0390 C   0  0  0  0  0  0  0  0  0  0  0  0
   43.2300   24.0130  -14.4240 C   0  0  0  0  0  0  0  0  0  0  0  0
   42.0320   24.6960  -14.6050 C   0  0  0  0  0  0  0  0  0  0  0  0
   41.9770   26.0700  -14.4020 C   0  0  0  0  0  0  0  0  0  0  0  0
   40.7280   26.8360  -14.5990 C   0  0  0  0  0  0  0  0  0  0  0  0
   40.2090   26.7020  -15.8830 O   0  0  0  0  0  0  0  0  0  0  0  0
   39.0520   27.3640  -16.2030 C   0  0  0  0  0  0  0  0  0  0  0  0
   38.5610   27.1910  -17.4980 C   0  0  0  0  0  0  0  0  0  0  0  0
   37.3870   27.8380  -17.8900 C   0  0  0  0  0  0  0  0  0  0  0  0
   36.7040   28.6570  -16.9880 C   0  0  0  0  0  0  0  0  0  0  0  0
   37.1970   28.8280  -15.6970 C   0  0  0  0  0  0  0  0  0  0  0  0
   36.4790   29.6440  -14.8660 O   0  0  0  0  0  0  0  0  0  0  0  0
   38.3710   28.1800  -15.3050 C   0  0  0  0  0  0  0  0  0  0  0  0
   38.9220   28.3320  -13.9580 C   0  0  0  0  0  0  0  0  0  0  0  0
   38.3830   29.0400  -13.1110 O   0  0  0  0  0  0  0  0  0  0  0  0
   40.1690   27.5980  -13.6410 C   0  0  0  0  0  0  0  0  0  0  0  0
   40.6890   27.7600  -12.3700 O   0  0  0  0  0  0  0  0  0  0  0  0
   43.1620   26.7380  -14.0420 C   0  0  0  0  0  0  0  0  0  0  0  0
   44.4100   26.0850  -13.8660 C   0  0  0  0  0  0  0  0  0  0  0  0
   45.6500   26.9320  -13.4660 C   0  0  0  0  0  0  0  0  0  0  0  0
   46.2870   26.4790  -12.1320 C   0  0  0  0  0  0  0  0  0  0  0  0
   45.2400   28.4170  -13.3760 C   0  0  0  0  0  0  0  0  0  0  0  0
   46.8080   26.8580  -14.5030 C   0  0  0  0  0  0  0  0  0  0  0  0
   45.8308   23.6402  -12.8100 H   0  0  0  0  0  0  0  0  0  0  0  0
   45.4325   22.8186  -14.3569 H   0  0  0  0  0  0  0  0  0  0  0  0
   46.4941   24.2677  -14.3569 H   0  0  0  0  0  0  0  0  0  0  0  0
   43.2542   22.9251  -14.5852 H   0  0  0  0  0  0  0  0  0  0  0  0
   41.1276   24.1486  -14.9089 H   0  0  0  0  0  0  0  0  0  0  0  0
   39.0980   26.5459  -18.2090 H   0  0  0  0  0  0  0  0  0  0  0  0
   36.9997   27.7024  -18.9106 H   0  0  0  0  0  0  0  0  0  0  0  0
   35.7789   29.1657  -17.2967 H   0  0  0  0  0  0  0  0  0  0  0  0
   36.7310   30.5400  -14.7580 H   0  0  0  0  0  0  0  0  0  0  0  0
   41.4090   28.3430  -12.2300 H   0  0  0  0  0  0  0  0  0  0  0  0
   43.1188   27.8264  -13.8885 H   0  0  0  0  0  0  0  0  0  0  0  0
   45.7089   26.8901  -11.2913 H   0  0  0  0  0  0  0  0  0  0  0  0
   46.2822   25.3803  -12.0778 H   0  0  0  0  0  0  0  0  0  0  0  0
   47.3232   26.8442  -12.0778 H   0  0  0  0  0  0  0  0  0  0  0  0
   45.1587   28.7115  -12.3193 H   0  0  0  0  0  0  0  0  0  0  0  0
   46.0003   29.0380  -13.8723 H   0  0  0  0  0  0  0  0  0  0  0  0
   44.2688   28.5600  -13.8723 H   0  0  0  0  0  0  0  0  0  0  0  0
   47.7705   26.7965  -13.9740 H   0  0  0  0  0  0  0  0  0  0  0  0
   46.6787   25.9663  -15.1340 H   0  0  0  0  0  0  0  0  0  0  0  0
   46.7933   27.7589  -15.1340 H   0  0  0  0  0  0  0  0  0  0  0  0
  1  2  1  0
  2  3  2  0
  3  4  1  0
  4  5  2  0
  5  6  1  0
  6  7  1  0
  7  8  1  0
  8  9  2  0
  9 10  1  0
 10 11  2  0
 11 12  1  0
 12 13  1  0
 12 14  2  0
 14 15  1  0
 15 16  2  0
 15 17  1  0
 17 18  1  0
  5 19  1  0
 19 20  2  0
 20 21  1  0
 21 22  1  0
 21 23  1  0
 21 24  1  0
 20  2  1  0
 17  6  2  0
 14  8  1  0
  1 25  1  0
  1 26  1  0
  1 27  1  0
  3 28  1  0
  4 29  1  0
  9 30  1  0
 10 31  1  0
 11 32  1  0
 13 33  1  0
 18 34  1  0
 19 35  1  0
 22 36  1  0
 22 37  1  0
 22 38  1  0
 23 39  1  0
 23 40  1  0
 23 41  1  0
 24 42  1  0
 24 43  1  0
 24 44  1  0
M  END
>  <meeko>  (5) 
{"is_sidechain": [false], "free_energy": -4.414, "intermolecular_energy": -4.364, "internal_energy": -0.122}

$$$$
cand_027_out
     RDKit          3D

 44 46  0  0  0  0  0  0  0  0999 V2000
   36.0960   27.3220  -19.2780 C   0  0  0  0  0  0  0  0  0  0  0  0
   37.2050   27.2170  -18.2650 C   0  0  0  0  0  0  0  0  0  0  0  0
   38.0150   26.0650  -18.3740 C   0  0  0  0  0  0  0  0  0  0  0  0
   39.0820   25.8310  -17.5130 C   0  0  0  0  0  0  0  0  0  0  0  0
   39.3810   26.7460  -16.5120 C   0  0  0  0  0  0  0  0  0  0  0  0
   40.4950   26.5280  -15.5650 C   0  0  0  0  0  0  0  0  0  0  0  0
   40.1780   26.9000  -14.2630 O   0  0  0  0  0  0  0  0  0  0  0  0
   41.1250   26.7510  -13.2820 C   0  0  0  0  0  0  0  0  0  0  0  0
   40.7600   27.1250  -11.9880 C   0  0  0  0  0  0  0  0  0  0  0  0
   41.6770   27.0010  -10.9420 C   0  0  0  0  0  0  0  0  0  0  0  0
   42.9590   26.5060  -11.1900 C   0  0  0  0  0  0  0  0  0  0  0  0
   43.3200   26.1340  -12.4820 C   0  0  0  0  0  0  0  0  0  0  0  0
   44.5910   25.6570  -12.6550 O   0  0  0  0  0  0  0  0  0  0  0  0
   42.4020   26.2570  -13.5280 C   0  0  0  0  0  0  0  0  0  0  0  0
   42.7410   25.8780  -14.9000 C   0  0  0  0  0  0  0  0  0  0  0  0
   43.8500   25.4400  -15.1990 O   0  0  0  0  0  0  0  0  0  0  0  0
   41.6950   26.0420  -15.9350 C   0  0  0  0  0  0  0  0  0  0  0  0
   42.0300   25.6950  -17.2310 O   0  0  0  0  0  0  0  0  0  0  0  0
   38.5620   27.8840  -16.3830 C   0  0  0  0  0  0  0  0  0  0  0  0
   37.4510   28.1530  -17.2260 C   0  0  0  0  0  0  0  0  0  0  0  0
   36.6210   29.4440  -16.9860 C   0  0  0  0  0  0  0  0  0  0  0  0
   37.4270   30.7380  -17.2460 C   0  0  0  0  0  0  0  0  0  0  0  0
   36.0870   29.4390  -15.5380 C   0  0  0  0  0  0  0  0  0  0  0  0
   35.3770   29.5590  -17.9130 C   0  0  0  0  0  0  0  0  0  0  0  0
   35.1313   27.4133  -18.7574 H   0  0  0  0  0  0  0  0  0  0  0  0
   36.2579   28.2088  -19.9083 H   0  0  0  0  0  0  0  0  0  0  0  0
   36.0886   26.4205  -19.9083 H   0  0  0  0  0  0  0  0  0  0  0  0
   37.7954   25.3310  -19.1634 H   0  0  0  0  0  0  0  0  0  0  0  0
   39.6893   24.9207  -17.6250 H   0  0  0  0  0  0  0  0  0  0  0  0
   39.7511   27.5171  -11.7921 H   0  0  0  0  0  0  0  0  0  0  0  0
   41.3891   27.2936   -9.9215 H   0  0  0  0  0  0  0  0  0  0  0  0
   43.6819   26.4103  -10.3664 H   0  0  0  0  0  0  0  0  0  0  0  0
   44.9050   24.9570  -12.1170 H   0  0  0  0  0  0  0  0  0  0  0  0
   42.0940   26.3560  -17.8910 H   0  0  0  0  0  0  0  0  0  0  0  0
   38.7955   28.6045  -15.5853 H   0  0  0  0  0  0  0  0  0  0  0  0
   37.7103   31.1928  -16.2853 H   0  0  0  0  0  0  0  0  0  0  0  0
   38.3344   30.4960  -17.8188 H   0  0  0  0  0  0  0  0  0  0  0  0
   36.8097   31.4457  -17.8188 H   0  0  0  0  0  0  0  0  0  0  0  0
   36.9331   29.4469  -14.8351 H   0  0  0  0  0  0  0  0  0  0  0  0
   35.4652   30.3314  -15.3734 H   0  0  0  0  0  0  0  0  0  0  0  0
   35.4821   28.5351  -15.3734 H   0  0  0  0  0  0  0  0  0  0  0  0
   34.4684   29.6430  -17.2986 H   0  0  0  0  0  0  0  0  0  0  0  0
   35.4741   30.4520  -18.5479 H   0  0  0  0  0  0  0  0  0  0  0  0
   35.3088   28.6633  -18.5479 H   0  0  0  0  0  0  0  0  0  0  0  0
  1  2  1  0
  2  3  2  0
  3  4  1  0
  4  5  2  0
  5  6  1  0
  6  7  1  0
  7  8  1  0
  8  9  2  0
  9 10  1  0
 10 11  2  0
 11 12  1  0
 12 13  1  0
 12 14  2  0
 14 15  1  0
 15 16  2  0
 15 17  1  0
 17 18  1  0
  5 19  1  0
 19 20  2  0
 20 21  1  0
 21 22  1  0
 21 23  1  0
 21 24  1  0
 20  2  1  0
 17  6  2  0
 14  8  1  0
  1 25  1  0
  1 26  1  0
  1 27  1  0
  3 28  1  0
  4 29  1  0
  9 30  1  0
 10 31  1  0
 11 32  1  0
 13 33  1  0
 18 34  1  0
 19 35  1  0
 22 36  1  0
 22 37  1  0
 22 38  1  0
 23 39  1  0
 23 40  1  0
 23 41  1  0
 24 42  1  0
 24 43  1  0
 24 44  1  0
M  END
>  <meeko>  (6) 
{"is_sidechain": [false], "free_energy": -3.262, "intermolecular_energy": -3.716, "internal_energy": 0.584}

$$$$
cand_027_out
     RDKit          3D

 44 46  0  0  0  0  0  0  0  0999 V2000
   44.3030   24.6910  -14.3200 C   0  0  0  0  0  0  0  0  0  0  0  0
   43.0230   25.4050  -14.6640 C   0  0  0  0  0  0  0  0  0  0  0  0
   42.4600   25.0650  -15.9140 C   0  0  0  0  0  0  0  0  0  0  0  0
   41.2750   25.6380  -16.3680 C   0  0  0  0  0  0  0  0  0  0  0  0
   40.6080   26.5690  -15.5820 C   0  0  0  0  0  0  0  0  0  0  0  0
   39.3570   27.2140  -16.0340 C   0  0  0  0  0  0  0  0  0  0  0  0
   38.9130   26.7330  -17.2610 O   0  0  0  0  0  0  0  0  0  0  0  0
   37.7620   27.2480  -17.7980 C   0  0  0  0  0  0  0  0  0  0  0  0
   37.3480   26.7270  -19.0250 C   0  0  0  0  0  0  0  0  0  0  0  0
   36.1840   27.2080  -19.6300 C   0  0  0  0  0  0  0  0  0  0  0  0
   35.4350   28.2100  -19.0070 C   0  0  0  0  0  0  0  0  0  0  0  0
   35.8510   28.7270  -17.7830 C   0  0  0  0  0  0  0  0  0  0  0  0
   35.0710   29.7060  -17.2300 O   0  0  0  0  0  0  0  0  0  0  0  0
   37.0150   28.2450  -17.1790 C   0  0  0  0  0  0  0  0  0  0  0  0
   37.4870   28.7610  -15.8940 C   0  0  0  0  0  0  0  0  0  0  0  0
   36.8860   29.6460  -15.2880 O   0  0  0  0  0  0  0  0  0  0  0  0
   38.7290   28.1790  -15.3360 C   0  0  0  0  0  0  0  0  0  0  0  0
   39.1740   28.6830  -14.1280 O   0  0  0  0  0  0  0  0  0  0  0  0
   41.1780   26.9300  -14.3470 C   0  0  0  0  0  0  0  0  0  0  0  0
   42.3940   26.3870  -13.8530 C   0  0  0  0  0  0  0  0  0  0  0  0
   42.9240   26.8630  -12.4730 C   0  0  0  0  0  0  0  0  0  0  0  0
   41.7950   27.1100  -11.4450 C   0  0  0  0  0  0  0  0  0  0  0  0
   43.7510   28.1520  -12.6660 C   0  0  0  0  0  0  0  0  0  0  0  0
   43.8670   25.8350  -11.7850 C   0  0  0  0  0  0  0  0  0  0  0  0
   44.4078   24.6325  -13.2266 H   0  0  0  0  0  0  0  0  0  0  0  0
   44.2807   23.6750  -14.7410 H   0  0  0  0  0  0  0  0  0  0  0  0
   45.1558   25.2438  -14.7410 H   0  0  0  0  0  0  0  0  0  0  0  0
   42.9727   24.3260  -16.5473 H   0  0  0  0  0  0  0  0  0  0  0  0
   40.8670   25.3534  -17.3491 H   0  0  0  0  0  0  0  0  0  0  0  0
   37.9377   25.9384  -19.5153 H   0  0  0  0  0  0  0  0  0  0  0  0
   35.8571   26.7979  -20.5969 H   0  0  0  0  0  0  0  0  0  0  0  0
   34.5186   28.5894  -19.4827 H   0  0  0  0  0  0  0  0  0  0  0  0
   34.4800   30.1930  -17.7680 H   0  0  0  0  0  0  0  0  0  0  0  0
   38.7030   29.3760  -13.7080 H   0  0  0  0  0  0  0  0  0  0  0  0
   40.6527   27.6739  -13.7300 H   0  0  0  0  0  0  0  0  0  0  0  0
   42.2007   27.0212  -10.4264 H   0  0  0  0  0  0  0  0  0  0  0  0
   41.3826   28.1196  -11.5888 H   0  0  0  0  0  0  0  0  0  0  0  0
   40.9987   26.3648  -11.5888 H   0  0  0  0  0  0  0  0  0  0  0  0
   44.0175   28.5673  -11.6829 H   0  0  0  0  0  0  0  0  0  0  0  0
   44.6684   27.9186  -13.2263 H   0  0  0  0  0  0  0  0  0  0  0  0
   43.1565   28.8886  -13.2263 H   0  0  0  0  0  0  0  0  0  0  0  0
   43.7792   25.9307  -10.6927 H   0  0  0  0  0  0  0  0  0  0  0  0
   43.5825   24.8165  -12.0879 H   0  0  0  0  0  0  0  0  0  0  0  0
   44.9062   26.0308  -12.0879 H   0  0  0  0  0  0  0  0  0  0  0  0
  1  2  1  0
  2  3  2  0
  3  4  1  0
  4  5  2  0
  5  6  1  0
  6  7  1  0
  7  8  1  0
  8  9  2  0
  9 10  1  0
 10 11  2  0
 11 12  1  0
 12 13  1  0
 12 14  2  0
 14 15  1  0
 15 16  2  0
 15 17  1  0
 17 18  1  0
  5 19  1  0
 19 20  2  0
 20 21  1  0
 21 22  1  0
 21 23  1  0
 21 24  1  0
 20  2  1  0
 17  6  2  0
 14  8  1  0
  1 25  1  0
  1 26  1  0
  1 27  1  0
  3 28  1  0
  4 29  1  0
  9 30  1  0
 10 31  1  0
 11 32  1  0
 13 33  1  0
 18 34  1  0
 19 35  1  0
 22 36  1  0
 22 37  1  0
 22 38  1  0
 23 39  1  0
 23 40  1  0
 23 41  1  0
 24 42  1  0
 24 43  1  0
 24 44  1  0
M  END
>  <meeko>  (7) 
{"is_sidechain": [false], "free_energy": -3.178, "intermolecular_energy": -3.827, "internal_energy": 0.794}

$$$$
