cand_011_out
     RDKit          3D

 35 37  0  0  0  0  0  0  0  0999 V2000
   36.4570   27.4230  -18.9570 C   0  0  0  0  0  0  0  0  0  0  0  0
   37.4870   27.2880  -17.8680 C   0  0  0  0  0  0  0  0  0  0  0  0
   38.4370   26.2590  -17.9480 C   0  0  0  0  0  0  0  0  0  0  0  0
   39.4100   26.1060  -16.9580 C   0  0  0  0  0  0  0  0  0  0  0  0
   39.4600   26.9720  -15.8610 C   0  0  0  0  0  0  0  0  0  0  0  0
   40.5110   26.8010  -14.8350 C   0  0  0  0  0  0  0  0  0  0  0  0
   41.6680   26.2170  -15.3370 O   0  0  0  0  0  0  0  0  0  0  0  0
   42.7230   26.0000  -14.4880 C   0  0  0  0  0  0  0  0  0  0  0  0
   43.8700   25.4240  -15.0360 C   0  0  0  0  0  0  0  0  0  0  0  0
   44.9810   25.1770  -14.2270 C   0  0  0  0  0  0  0  0  0  0  0  0
   44.9440   25.5040  -12.8690 C   0  0  0  0  0  0  0  0  0  0  0  0
   43.7980   26.0790  -12.3250 C   0  0  0  0  0  0  0  0  0  0  0  0
   43.8300   26.3730  -10.9890 O   0  0  0  0  0  0  0  0  0  0  0  0
   42.6870   26.3270  -13.1360 C   0  0  0  0  0  0  0  0  0  0  0  0
   41.4640   26.9290  -12.6030 C   0  0  0  0  0  0  0  0  0  0  0  0
   41.3520   27.2380  -11.4180 O   0  0  0  0  0  0  0  0  0  0  0  0
   40.3470   27.1590  -13.5480 C   0  0  0  0  0  0  0  0  0  0  0  0
   39.1910   27.7160  -13.0350 O   0  0  0  0  0  0  0  0  0  0  0  0
   38.5210   28.0110  -15.7890 C   0  0  0  0  0  0  0  0  0  0  0  0
   37.5300   28.1840  -16.7780 C   0  0  0  0  0  0  0  0  0  0  0  0
   36.5380   29.3180  -16.6420 C   0  0  0  0  0  0  0  0  0  0  0  0
   37.0720   30.5250  -16.9850 F   0  0  0  0  0  0  0  0  0  0  0  0
   35.4280   29.1740  -17.4200 F   0  0  0  0  0  0  0  0  0  0  0  0
   36.0730   29.4630  -15.3690 F   0  0  0  0  0  0  0  0  0  0  0  0
   35.4620   27.5534  -18.5065 H   0  0  0  0  0  0  0  0  0  0  0  0
   36.6948   28.2977  -19.5802 H   0  0  0  0  0  0  0  0  0  0  0  0
   36.4614   26.5166  -19.5802 H   0  0  0  0  0  0  0  0  0  0  0  0
   38.4153   25.5644  -18.8007 H   0  0  0  0  0  0  0  0  0  0  0  0
   40.1468   25.2936  -17.0422 H   0  0  0  0  0  0  0  0  0  0  0  0
   43.8988   25.1647  -16.1046 H   0  0  0  0  0  0  0  0  0  0  0  0
   45.8859   24.7247  -14.6590 H   0  0  0  0  0  0  0  0  0  0  0  0
   45.8182   25.3077  -12.2309 H   0  0  0  0  0  0  0  0  0  0  0  0
   43.5670   27.2210  -10.6900 H   0  0  0  0  0  0  0  0  0  0  0  0
   38.8840   27.4600  -12.1880 H   0  0  0  0  0  0  0  0  0  0  0  0
   38.5581   28.7090  -14.9396 H   0  0  0  0  0  0  0  0  0  0  0  0
  1  2  1  0
  2  3  2  0
  3  4  1  0
  4  5  2  0
  5  6  1  0
  6  7  1  0
  7  8  1  0
  8  9  2  0
  9 10  1  0
 10 11  2  0
 11 12  1  0
 12 13  1  0
 12 14  2  0
 14 15  1  0
 15 16  2  0
 15 17  1  0
 17 18  1  0
  5 19  1  0
 19 20  2  0
 20 21  1  0
 21 22  1  0
 21 23  1  0
 21 24  1  0
 20  2  1  0
 17  6  2  0
 14  8  1  0
  1 25  1  0
  1 26  1  0
  1 27  1  0
  3 28  1  0
  4 29  1  0
  9 30  1  0
 10 31  1  0
 11 32  1  0
 13 33  1  0
 18 34  1  0
 19 35  1  0
M  END
>  <meeko>  (1) 
{"is_sidechain": [false], "free_energy": -7.699, "intermolecular_energy": -9.05, "internal_energy": 0.454}

$$$$
cand_011_out
     RDKit          3D

 35 37  0  0  0  0  0  0  0  0999 V2000
   45.3380   24.4350  -13.2920 C   0  0  0  0  0  0  0  0  0  0  0  0
   44.1120   25.0480  -13.9140 C   0  0  0  0  0  0  0  0  0  0  0  0
   43.3710   24.3040  -14.8430 C   0  0  0  0  0  0  0  0  0  0  0  0
   42.2260   24.8390  -15.4370 C   0  0  0  0  0  0  0  0  0  0  0  0
   41.7900   26.1300  -15.1220 C   0  0  0  0  0  0  0  0  0  0  0  0
   40.5640   26.6680  -15.7490 C   0  0  0  0  0  0  0  0  0  0  0  0
   39.8090   27.4460  -14.8810 O   0  0  0  0  0  0  0  0  0  0  0  0
   38.6420   28.0060  -15.3370 C   0  0  0  0  0  0  0  0  0  0  0  0
   37.9220   28.7930  -14.4360 C   0  0  0  0  0  0  0  0  0  0  0  0
   36.7260   29.3920  -14.8370 C   0  0  0  0  0  0  0  0  0  0  0  0
   36.2500   29.2040  -16.1370 C   0  0  0  0  0  0  0  0  0  0  0  0
   36.9700   28.4190  -17.0330 C   0  0  0  0  0  0  0  0  0  0  0  0
   36.4460   28.2760  -18.2880 O   0  0  0  0  0  0  0  0  0  0  0  0
   38.1680   27.8200  -16.6320 C   0  0  0  0  0  0  0  0  0  0  0  0
   38.9550   26.9880  -17.5430 C   0  0  0  0  0  0  0  0  0  0  0  0
   38.5990   26.7690  -18.6990 O   0  0  0  0  0  0  0  0  0  0  0  0
   40.2140   26.4070  -17.0230 C   0  0  0  0  0  0  0  0  0  0  0  0
   40.9460   25.6120  -17.8850 O   0  0  0  0  0  0  0  0  0  0  0  0
   42.5210   26.8680  -14.1800 C   0  0  0  0  0  0  0  0  0  0  0  0
   43.6800   26.3470  -13.5680 C   0  0  0  0  0  0  0  0  0  0  0  0
   44.4330   27.1940  -12.5660 C   0  0  0  0  0  0  0  0  0  0  0  0
   44.1320   26.8710  -11.2760 F   0  0  0  0  0  0  0  0  0  0  0  0
   45.7890   27.0880  -12.6640 F   0  0  0  0  0  0  0  0  0  0  0  0
   44.1630   28.5240  -12.6900 F   0  0  0  0  0  0  0  0  0  0  0  0
   45.2533   24.4773  -12.1961 H   0  0  0  0  0  0  0  0  0  0  0  0
   45.4266   23.3865  -13.6127 H   0  0  0  0  0  0  0  0  0  0  0  0
   46.2300   24.9932  -13.6127 H   0  0  0  0  0  0  0  0  0  0  0  0
   43.6954   23.2867  -15.1071 H   0  0  0  0  0  0  0  0  0  0  0  0
   41.6593   24.2369  -16.1625 H   0  0  0  0  0  0  0  0  0  0  0  0
   38.2962   28.9409  -13.4122 H   0  0  0  0  0  0  0  0  0  0  0  0
   36.1579   30.0127  -14.1284 H   0  0  0  0  0  0  0  0  0  0  0  0
   35.3075   29.6757  -16.4520 H   0  0  0  0  0  0  0  0  0  0  0  0
   35.8830   27.5520  -18.4810 H   0  0  0  0  0  0  0  0  0  0  0  0
   40.6460   24.7490  -18.0930 H   0  0  0  0  0  0  0  0  0  0  0  0
   42.1818   27.8793  -13.9114 H   0  0  0  0  0  0  0  0  0  0  0  0
  1  2  1  0
  2  3  2  0
  3  4  1  0
  4  5  2  0
  5  6  1  0
  6  7  1  0
  7  8  1  0
  8  9  2  0
  9 10  1  0
 10 11  2  0
 11 12  1  0
 12 13  1  0
 12 14  2  0
 14 15  1  0
 15 16  2  0
 15 17  1  0
 17 18  1  0
  5 19  1  0
 19 20  2  0
 20 21  1  0
 21 22  1  0
 21 23  1  0
 21 24  1  0
 20  2  1  0
 17  6  2  0
 14  8  1  0
  1 25  1  0
  1 26  1  0
  1 27  1  0
  3 28  1  0
  4 29  1  0
  9 30  1  0
 10 31  1  0
 11 32  1  0
 13 33  1  0
 18 34  1  0
 19 35  1  0
M  END
>  <meeko>  (2) 
{"is_sidechain": [false], "free_energy": -7.696, "intermolecular_energy": -8.734, "internal_energy": 0.142}

$$$$
cand_011_out
     RDKit          3D

 35 37  0  0  0  0  0  0  0  0999 V2000
   45.7500   23.9520  -13.8730 C   0  0  0  0  0  0  0  0  0  0  0  0
   44.4880   24.7530  -14.0510 C   0  0  0  0  0  0  0  0  0  0  0  0
   43.3160   24.1010  -14.4580 C   0  0  0  0  0  0  0  0  0  0  0  0
   42.1260   24.8110  -14.6300 C   0  0  0  0  0  0  0  0  0  0  0  0
   42.0730   26.1900  -14.4030 C   0  0  0  0  0  0  0  0  0  0  0  0
   40.7980   26.9170  -14.5720 C   0  0  0  0  0  0  0  0  0  0  0  0
   40.2630   26.7810  -15.8480 O   0  0  0  0  0  0  0  0  0  0  0  0
   39.0780   27.4090  -16.1400 C   0  0  0  0  0  0  0  0  0  0  0  0
   38.5700   27.2340  -17.4280 C   0  0  0  0  0  0  0  0  0  0  0  0
   37.3680   27.8460  -17.7920 C   0  0  0  0  0  0  0  0  0  0  0  0
   36.6760   28.6330  -16.8670 C   0  0  0  0  0  0  0  0  0  0  0  0
   37.1850   28.8050  -15.5830 C   0  0  0  0  0  0  0  0  0  0  0  0
   36.4580   29.5880  -14.7300 O   0  0  0  0  0  0  0  0  0  0  0  0
   38.3880   28.1920  -15.2200 C   0  0  0  0  0  0  0  0  0  0  0  0
   38.9580   28.3470  -13.8810 C   0  0  0  0  0  0  0  0  0  0  0  0
   38.4130   29.0290  -13.0150 O   0  0  0  0  0  0  0  0  0  0  0  0
   40.2320   27.6490  -13.5940 C   0  0  0  0  0  0  0  0  0  0  0  0
   40.7710   27.8110  -12.3320 O   0  0  0  0  0  0  0  0  0  0  0  0
   43.2420   26.8400  -13.9790 C   0  0  0  0  0  0  0  0  0  0  0  0
   44.4540   26.1410  -13.7990 C   0  0  0  0  0  0  0  0  0  0  0  0
   45.6840   26.8980  -13.3480 C   0  0  0  0  0  0  0  0  0  0  0  0
   45.3830   27.9620  -12.5520 F   0  0  0  0  0  0  0  0  0  0  0  0
   46.5630   26.1410  -12.6310 F   0  0  0  0  0  0  0  0  0  0  0  0
   46.4050   27.4020  -14.3900 F   0  0  0  0  0  0  0  0  0  0  0  0
   45.9539   23.8226  -12.7998 H   0  0  0  0  0  0  0  0  0  0  0  0
   45.6279   22.9657  -14.3445 H   0  0  0  0  0  0  0  0  0  0  0  0
   46.5905   24.4823  -14.3445 H   0  0  0  0  0  0  0  0  0  0  0  0
   43.3338   23.0170  -14.6442 H   0  0  0  0  0  0  0  0  0  0  0  0
   41.2177   24.2784  -14.9484 H   0  0  0  0  0  0  0  0  0  0  0  0
   39.1153   26.6150  -18.1557 H   0  0  0  0  0  0  0  0  0  0  0  0
   36.9661   27.7085  -18.8067 H   0  0  0  0  0  0  0  0  0  0  0  0
   35.7301   29.1159  -17.1535 H   0  0  0  0  0  0  0  0  0  0  0  0
   35.7800   30.1410  -15.0660 H   0  0  0  0  0  0  0  0  0  0  0  0
   41.0480   27.0630  -11.8410 H   0  0  0  0  0  0  0  0  0  0  0  0
   43.2126   27.9218  -13.7820 H   0  0  0  0  0  0  0  0  0  0  0  0
  1  2  1  0
  2  3  2  0
  3  4  1  0
  4  5  2  0
  5  6  1  0
  6  7  1  0
  7  8  1  0
  8  9  2  0
  9 10  1  0
 10 11  2  0
 11 12  1  0
 12 13  1  0
 12 14  2  0
 14 15  1  0
 15 16  2  0
 15 17  1  0
 17 18  1  0
  5 19  1  0
 19 20  2  0
 20 21  1  0
 21 22  1  0
 21 23  1  0
 21 24  1  0
 20  2  1  0
 17  6  2  0
 14  8  1  0
  1 25  1  0
  1 26  1  0
  1 27  1  0
  3 28  1  0
  4 29  1  0
  9 30  1  0
 10 31  1  0
 11 32  1  0
 13 33  1  0
 18 34  1  0
 19 35  1  0
M  END
>  <meeko>  (3) 
{"is_sidechain": [false], "free_energy": -7.158, "intermolecular_energy": -8.003, "internal_energy": 0.044}

$$$$
cand_011_out
     RDKit          3D

 35 37  0  0  0  0  0  0  0  0999 V2000
   44.4570   25.8480  -11.3150 C   0  0  0  0  0  0  0  0  0  0  0  0
   43.2770   26.2620  -12.1540 C   0  0  0  0  0  0  0  0  0  0  0  0
   42.1920   26.9020  -11.5390 C   0  0  0  0  0  0  0  0  0  0  0  0
   41.0820   27.3040  -12.2850 C   0  0  0  0  0  0  0  0  0  0  0  0
   41.0240   27.0770  -13.6640 C   0  0  0  0  0  0  0  0  0  0  0  0
   39.8480   27.5290  -14.4370 C   0  0  0  0  0  0  0  0  0  0  0  0
   39.7460   26.9110  -15.6780 O   0  0  0  0  0  0  0  0  0  0  0  0
   38.6970   27.2420  -16.4980 C   0  0  0  0  0  0  0  0  0  0  0  0
   38.6250   26.5880  -17.7290 C   0  0  0  0  0  0  0  0  0  0  0  0
   37.5830   26.8790  -18.6120 C   0  0  0  0  0  0  0  0  0  0  0  0
   36.6140   27.8230  -18.2650 C   0  0  0  0  0  0  0  0  0  0  0  0
   36.6880   28.4740  -17.0360 C   0  0  0  0  0  0  0  0  0  0  0  0
   35.7080   29.3870  -16.7610 O   0  0  0  0  0  0  0  0  0  0  0  0
   37.7310   28.1820  -16.1520 C   0  0  0  0  0  0  0  0  0  0  0  0
   37.8460   28.8430  -14.8520 C   0  0  0  0  0  0  0  0  0  0  0  0
   37.0380   29.6910  -14.4770 O   0  0  0  0  0  0  0  0  0  0  0  0
   38.9830   28.4570  -13.9860 C   0  0  0  0  0  0  0  0  0  0  0  0
   39.0930   29.0950  -12.7640 O   0  0  0  0  0  0  0  0  0  0  0  0
   42.1170   26.4520  -14.2820 C   0  0  0  0  0  0  0  0  0  0  0  0
   43.2480   26.0380  -13.5470 C   0  0  0  0  0  0  0  0  0  0  0  0
   44.3930   25.3610  -14.2680 C   0  0  0  0  0  0  0  0  0  0  0  0
   45.5300   26.1120  -14.2670 F   0  0  0  0  0  0  0  0  0  0  0  0
   44.7470   24.1590  -13.7300 F   0  0  0  0  0  0  0  0  0  0  0  0
   44.1140   25.1050  -15.5770 F   0  0  0  0  0  0  0  0  0  0  0  0
   44.1991   25.9385  -10.2495 H   0  0  0  0  0  0  0  0  0  0  0  0
   44.7196   24.8041  -11.5413 H   0  0  0  0  0  0  0  0  0  0  0  0
   45.3143   26.4990  -11.5413 H   0  0  0  0  0  0  0  0  0  0  0  0
   42.2152   27.0899  -10.4554 H   0  0  0  0  0  0  0  0  0  0  0  0
   40.2424   27.8057  -11.7816 H   0  0  0  0  0  0  0  0  0  0  0  0
   39.3879   25.8445  -18.0032 H   0  0  0  0  0  0  0  0  0  0  0  0
   37.5253   26.3640  -19.5823 H   0  0  0  0  0  0  0  0  0  0  0  0
   35.7937   28.0520  -18.9612 H   0  0  0  0  0  0  0  0  0  0  0  0
   34.8090   29.1710  -16.9170 H   0  0  0  0  0  0  0  0  0  0  0  0
   38.3860   29.0550  -12.1500 H   0  0  0  0  0  0  0  0  0  0  0  0
   42.0918   26.2801  -15.3682 H   0  0  0  0  0  0  0  0  0  0  0  0
  1  2  1  0
  2  3  2  0
  3  4  1  0
  4  5  2  0
  5  6  1  0
  6  7  1  0
  7  8  1  0
  8  9  2  0
  9 10  1  0
 10 11  2  0
 11 12  1  0
 12 13  1  0
 12 14  2  0
 14 15  1  0
 15 16  2  0
 15 17  1  0
 17 18  1  0
  5 19  1  0
 19 20  2  0
 20 21  1  0
 21 22  1  0
 21 23  1  0
 21 24  1  0
 20  2  1  0
 17  6  2  0
 14  8  1  0
  1 25  1  0
  1 26  1  0
  1 27  1  0
  3 28  1  0
  4 29  1  0
  9 30  1  0
 10 31  1  0
 11 32  1  0
 13 33  1  0
 18 34  1  0
 19 35  1  0
M  END
>  <meeko>  (4) 
{"is_sidechain": [false], "free_energy": -6.923, "intermolecular_energy": -7.888, "internal_energy": 0.205}

$$$$
cand_011_out
     RDKit          3D

 35 37  0  0  0  0  0  0  0  0999 V2000
   44.3100   26.1500  -10.9580 C   0  0  0  0  0  0  0  0  0  0  0  0
   43.2810   26.3590  -12.0370 C   0  0  0  0  0  0  0  0  0  0  0  0
   42.0230   26.8720  -11.6920 C   0  0  0  0  0  0  0  0  0  0  0  0
   41.0450   27.0830  -12.6660 C   0  0  0  0  0  0  0  0  0  0  0  0
   41.2940   26.7860  -14.0090 C   0  0  0  0  0  0  0  0  0  0  0  0
   40.2500   27.0350  -15.0250 C   0  0  0  0  0  0  0  0  0  0  0  0
   39.2830   27.9370  -14.5980 O   0  0  0  0  0  0  0  0  0  0  0  0
   38.2540   28.2570  -15.4460 C   0  0  0  0  0  0  0  0  0  0  0  0
   37.3130   29.1780  -14.9830 C   0  0  0  0  0  0  0  0  0  0  0  0
   36.2390   29.5470  -15.7970 C   0  0  0  0  0  0  0  0  0  0  0  0
   36.1060   28.9940  -17.0730 C   0  0  0  0  0  0  0  0  0  0  0  0
   37.0460   28.0760  -17.5330 C   0  0  0  0  0  0  0  0  0  0  0  0
   36.8540   27.5730  -18.7900 O   0  0  0  0  0  0  0  0  0  0  0  0
   38.1210   27.7080  -16.7180 C   0  0  0  0  0  0  0  0  0  0  0  0
   39.1300   26.7460  -17.1630 C   0  0  0  0  0  0  0  0  0  0  0  0
   39.0790   26.2110  -18.2690 O   0  0  0  0  0  0  0  0  0  0  0  0
   40.2340   26.4300  -16.2280 C   0  0  0  0  0  0  0  0  0  0  0  0
   41.1770   25.5120  -16.6500 O   0  0  0  0  0  0  0  0  0  0  0  0
   42.5590   26.2880  -14.3570 C   0  0  0  0  0  0  0  0  0  0  0  0
   43.5600   26.0680  -13.3890 C   0  0  0  0  0  0  0  0  0  0  0  0
   44.9030   25.5220  -13.8240 C   0  0  0  0  0  0  0  0  0  0  0  0
   45.8320   26.5010  -14.0120 F   0  0  0  0  0  0  0  0  0  0  0  0
   45.4590   24.6550  -12.9310 F   0  0  0  0  0  0  0  0  0  0  0  0
   44.8370   24.8370  -15.0010 F   0  0  0  0  0  0  0  0  0  0  0  0
   43.8322   26.2470   -9.9719 H   0  0  0  0  0  0  0  0  0  0  0  0
   44.7460   25.1450  -11.0569 H   0  0  0  0  0  0  0  0  0  0  0  0
   45.1036   26.9053  -11.0569 H   0  0  0  0  0  0  0  0  0  0  0  0
   41.8035   27.1113  -10.6410 H   0  0  0  0  0  0  0  0  0  0  0  0
   40.0654   27.4884  -12.3725 H   0  0  0  0  0  0  0  0  0  0  0  0
   37.4168   29.6130  -13.9780 H   0  0  0  0  0  0  0  0  0  0  0  0
   35.4976   30.2735  -15.4329 H   0  0  0  0  0  0  0  0  0  0  0  0
   35.2597   29.2835  -17.7133 H   0  0  0  0  0  0  0  0  0  0  0  0
   35.9850   27.4500  -19.1180 H   0  0  0  0  0  0  0  0  0  0  0  0
   41.8230   25.1940  -16.0500 H   0  0  0  0  0  0  0  0  0  0  0  0
   42.7750   26.0636  -15.4120 H   0  0  0  0  0  0  0  0  0  0  0  0
  1  2  1  0
  2  3  2  0
  3  4  1  0
  4  5  2  0
  5  6  1  0
  6  7  1  0
  7  8  1  0
  8  9  2  0
  9 10  1  0
 10 11  2  0
 11 12  1  0
 12 13  1  0
 12 14  2  0
 14 15  1  0
 15 16  2  0
 15 17  1  0
 17 18  1  0
  5 19  1  0
 19 20  2  0
 20 21  1  0
 21 22  1  0
 21 23  1  0
 21 24  1  0
 20  2  1  0
 17  6  2  0
 14  8  1  0
  1 25  1  0
  1 26  1  0
  1 27  1  0
  3 28  1  0
  4 29  1  0
  9 30  1  0
 10 31  1  0
 11 32  1  0
 13 33  1  0
 18 34  1  0
 19 35  1  0
M  END
>  <meeko>  (5) 
{"is_sidechain": [false], "free_energy": -6.868, "intermolecular_energy": -7.904, "internal_energy": 0.284}

$$$$
cand_011_out
     RDKit          3D

 35 37  0  0  0  0  0  0  0  0999 V2000
   35.7040   29.3570  -17.3450 C   0  0  0  0  0  0  0  0  0  0  0  0
   36.8820   28.8560  -16.5530 C   0  0  0  0  0  0  0  0  0  0  0  0
   37.1780   29.4490  -15.3170 C   0  0  0  0  0  0  0  0  0  0  0  0
   38.2600   29.0070  -14.5530 C   0  0  0  0  0  0  0  0  0  0  0  0
   39.0780   27.9650  -15.0020 C   0  0  0  0  0  0  0  0  0  0  0  0
   40.2070   27.5020  -14.1680 C   0  0  0  0  0  0  0  0  0  0  0  0
   41.2140   26.8940  -14.9080 O   0  0  0  0  0  0  0  0  0  0  0  0
   42.3210   26.4170  -14.2540 C   0  0  0  0  0  0  0  0  0  0  0  0
   43.3140   25.8260  -15.0370 C   0  0  0  0  0  0  0  0  0  0  0  0
   44.4680   25.3190  -14.4340 C   0  0  0  0  0  0  0  0  0  0  0  0
   44.6270   25.4020  -13.0480 C   0  0  0  0  0  0  0  0  0  0  0  0
   43.6350   25.9920  -12.2700 C   0  0  0  0  0  0  0  0  0  0  0  0
   43.8550   26.0390  -10.9200 O   0  0  0  0  0  0  0  0  0  0  0  0
   42.4810   26.5000  -12.8740 C   0  0  0  0  0  0  0  0  0  0  0  0
   41.4150   27.1270  -12.0920 C   0  0  0  0  0  0  0  0  0  0  0  0
   41.4780   27.2310  -10.8680 O   0  0  0  0  0  0  0  0  0  0  0  0
   40.2380   27.6410  -12.8290 C   0  0  0  0  0  0  0  0  0  0  0  0
   39.2290   28.2210  -12.0830 O   0  0  0  0  0  0  0  0  0  0  0  0
   38.7730   27.3610  -16.2310 C   0  0  0  0  0  0  0  0  0  0  0  0
   37.6840   27.7910  -17.0170 C   0  0  0  0  0  0  0  0  0  0  0  0
   37.4090   27.1060  -18.3380 C   0  0  0  0  0  0  0  0  0  0  0  0
   37.1880   25.7690  -18.1990 F   0  0  0  0  0  0  0  0  0  0  0  0
   36.3160   27.5920  -18.9920 F   0  0  0  0  0  0  0  0  0  0  0  0
   38.4420   27.2250  -19.2200 F   0  0  0  0  0  0  0  0  0  0  0  0
   34.9149   29.6926  -16.6560 H   0  0  0  0  0  0  0  0  0  0  0  0
   36.0196   30.1988  -17.9789 H   0  0  0  0  0  0  0  0  0  0  0  0
   35.3166   28.5458  -17.9789 H   0  0  0  0  0  0  0  0  0  0  0  0
   36.5503   30.2721  -14.9450 H   0  0  0  0  0  0  0  0  0  0  0  0
   38.4719   29.4847  -13.5851 H   0  0  0  0  0  0  0  0  0  0  0  0
   43.1882   25.7595  -16.1278 H   0  0  0  0  0  0  0  0  0  0  0  0
   45.2516   24.8544  -15.0504 H   0  0  0  0  0  0  0  0  0  0  0  0
   45.5347   25.0017  -12.5727 H   0  0  0  0  0  0  0  0  0  0  0  0
   43.6870   26.8290  -10.4460 H   0  0  0  0  0  0  0  0  0  0  0  0
   39.4190   28.5830  -11.2400 H   0  0  0  0  0  0  0  0  0  0  0  0
   39.3991   26.5311  -16.5906 H   0  0  0  0  0  0  0  0  0  0  0  0
  1  2  1  0
  2  3  2  0
  3  4  1  0
  4  5  2  0
  5  6  1  0
  6  7  1  0
  7  8  1  0
  8  9  2  0
  9 10  1  0
 10 11  2  0
 11 12  1  0
 12 13  1  0
 12 14  2  0
 14 15  1  0
 15 16  2  0
 15 17  1  0
 17 18  1  0
  5 19  1  0
 19 20  2  0
 20 21  1  0
 21 22  1  0
 21 23  1  0
 21 24  1  0
 20  2  1  0
 17  6  2  0
 14  8  1  0
  1 25  1  0
  1 26  1  0
  1 27  1  0
  3 28  1  0
  4 29  1  0
  9 30  1  0
 10 31  1  0
 11 32  1  0
 13 33  1  0
 18 34  1  0
 19 35  1  0
M  END
>  <meeko>  (6) 
{"is_sidechain": [false], "free_energy": -6.822, "intermolecular_energy": -8.192, "internal_energy": 0.627}

$$$$
cand_011_out
     RDKit          3D

 35 37  0  0  0  0  0  0  0  0999 V2000
   35.6710   27.6020  -19.4220 C   0  0  0  0  0  0  0  0  0  0  0  0
   36.8120   27.3890  -18.4630 C   0  0  0  0  0  0  0  0  0  0  0  0
   37.6720   26.2990  -18.6550 C   0  0  0  0  0  0  0  0  0  0  0  0
   38.7430   26.0720  -17.7880 C   0  0  0  0  0  0  0  0  0  0  0  0
   38.9830   26.9240  -16.7050 C   0  0  0  0  0  0  0  0  0  0  0  0
   40.1340   26.6750  -15.8120 C   0  0  0  0  0  0  0  0  0  0  0  0
   39.8970   27.0700  -14.5010 O   0  0  0  0  0  0  0  0  0  0  0  0
   40.8870   26.8950  -13.5670 C   0  0  0  0  0  0  0  0  0  0  0  0
   40.6020   27.2930  -12.2600 C   0  0  0  0  0  0  0  0  0  0  0  0
   41.5660   27.1420  -11.2600 C   0  0  0  0  0  0  0  0  0  0  0  0
   42.8150   26.5960  -11.5680 C   0  0  0  0  0  0  0  0  0  0  0  0
   43.0960   26.2010  -12.8730 C   0  0  0  0  0  0  0  0  0  0  0  0
   44.3380   25.6750  -13.1050 O   0  0  0  0  0  0  0  0  0  0  0  0
   42.1310   26.3500  -13.8730 C   0  0  0  0  0  0  0  0  0  0  0  0
   42.3860   25.9480  -15.2570 C   0  0  0  0  0  0  0  0  0  0  0  0
   43.4620   25.4660  -15.6080 O   0  0  0  0  0  0  0  0  0  0  0  0
   41.2940   26.1400  -16.2380 C   0  0  0  0  0  0  0  0  0  0  0  0
   41.5470   25.7690  -17.5450 O   0  0  0  0  0  0  0  0  0  0  0  0
   38.1330   28.0240  -16.5230 C   0  0  0  0  0  0  0  0  0  0  0  0
   37.0460   28.2720  -17.3870 C   0  0  0  0  0  0  0  0  0  0  0  0
   36.1570   29.4700  -17.1350 C   0  0  0  0  0  0  0  0  0  0  0  0
   36.8100   30.6530  -17.3120 F   0  0  0  0  0  0  0  0  0  0  0  0
   35.0660   29.5270  -17.9510 F   0  0  0  0  0  0  0  0  0  0  0  0
   35.6630   29.5030  -15.8650 F   0  0  0  0  0  0  0  0  0  0  0  0
   34.7438   27.7751  -18.8560 H   0  0  0  0  0  0  0  0  0  0  0  0
   35.8826   28.4762  -20.0553 H   0  0  0  0  0  0  0  0  0  0  0  0
   35.5530   26.7104  -20.0553 H   0  0  0  0  0  0  0  0  0  0  0  0
   37.5013   25.6142  -19.4987 H   0  0  0  0  0  0  0  0  0  0  0  0
   39.4067   25.2117  -17.9591 H   0  0  0  0  0  0  0  0  0  0  0  0
   39.6198   27.7249  -12.0175 H   0  0  0  0  0  0  0  0  0  0  0  0
   41.3416   27.4532  -10.2291 H   0  0  0  0  0  0  0  0  0  0  0  0
   43.5745   26.4786  -10.7810 H   0  0  0  0  0  0  0  0  0  0  0  0
   45.0910   26.2320  -13.0930 H   0  0  0  0  0  0  0  0  0  0  0  0
   42.0380   24.9920  -17.7250 H   0  0  0  0  0  0  0  0  0  0  0  0
   38.3186   28.7115  -15.6846 H   0  0  0  0  0  0  0  0  0  0  0  0
  1  2  1  0
  2  3  2  0
  3  4  1  0
  4  5  2  0
  5  6  1  0
  6  7  1  0
  7  8  1  0
  8  9  2  0
  9 10  1  0
 10 11  2  0
 11 12  1  0
 12 13  1  0
 12 14  2  0
 14 15  1  0
 15 16  2  0
 15 17  1  0
 17 18  1  0
  5 19  1  0
 19 20  2  0
 20 21  1  0
 21 22  1  0
 21 23  1  0
 21 24  1  0
 20  2  1  0
 17  6  2  0
 14  8  1  0
  1 25  1  0
  1 26  1  0
  1 27  1  0
  3 28  1  0
  4 29  1  0
  9 30  1  0
 10 31  1  0
 11 32  1  0
 13 33  1  0
 18 34  1  0
 19 35  1  0
M  END
>  <meeko>  (7) 
{"is_sidechain": [false], "free_energy": -5.839, "intermolecular_energy": -6.948, "internal_energy": 0.539}

$$$$
