cand_043_out
     RDKit          3D

 44 46  0  0  0  0  0  0  0  0999 V2000
   43.3550   26.9400  -11.6850 C   0  0  0  0  0  0  0  0  0  0  0  0
   43.2100   26.3860  -13.0780 C   0  0  0  0  0  0  0  0  0  0  0  0
   42.0410   26.7900  -13.7700 C   0  0  0  0  0  0  0  0  0  0  0  0
   41.7540   26.3720  -15.0740 C   0  0  0  0  0  0  0  0  0  0  0  0
   40.5010   26.7980  -15.7330 C   0  0  0  0  0  0  0  0  0  0  0  0
   39.7250   27.6290  -14.9320 O   0  0  0  0  0  0  0  0  0  0  0  0
   38.5330   28.0970  -15.4230 C   0  0  0  0  0  0  0  0  0  0  0  0
   37.7800   28.9160  -14.5800 C   0  0  0  0  0  0  0  0  0  0  0  0
   36.5570   29.4290  -15.0180 C   0  0  0  0  0  0  0  0  0  0  0  0
   36.0870   29.1230  -16.2960 C   0  0  0  0  0  0  0  0  0  0  0  0
   36.8410   28.3060  -17.1350 C   0  0  0  0  0  0  0  0  0  0  0  0
   36.3220   28.0460  -18.3740 O   0  0  0  0  0  0  0  0  0  0  0  0
   38.0640   27.7920  -16.6960 C   0  0  0  0  0  0  0  0  0  0  0  0
   38.8870   26.9290  -17.5450 C   0  0  0  0  0  0  0  0  0  0  0  0
   38.5440   26.6210  -18.6850 O   0  0  0  0  0  0  0  0  0  0  0  0
   40.1630   26.4310  -16.9840 C   0  0  0  0  0  0  0  0  0  0  0  0
   40.9380   25.6270  -17.7990 O   0  0  0  0  0  0  0  0  0  0  0  0
   42.6600   25.5170  -15.6880 C   0  0  0  0  0  0  0  0  0  0  0  0
   43.8290   25.1190  -15.0280 C   0  0  0  0  0  0  0  0  0  0  0  0
   44.1580   25.5480  -13.7210 C   0  0  0  0  0  0  0  0  0  0  0  0
   45.4840   25.0550  -13.0800 C   0  0  0  0  0  0  0  0  0  0  0  0
   45.2680   24.3040  -11.7470 C   0  0  0  0  0  0  0  0  0  0  0  0
   46.4660   26.2110  -12.7310 C   0  0  0  0  0  0  0  0  0  0  0  0
   46.2230   24.1440  -14.0830 C   0  0  0  0  0  0  0  0  0  0  0  0
   43.1474   26.1469  -10.9515 H   0  0  0  0  0  0  0  0  0  0  0  0
   44.3806   27.3114  -11.5430 H   0  0  0  0  0  0  0  0  0  0  0  0
   42.6429   27.7663  -11.5430 H   0  0  0  0  0  0  0  0  0  0  0  0
   41.3310   27.4589  -13.2616 H   0  0  0  0  0  0  0  0  0  0  0  0
   38.1492   29.1570  -13.5722 H   0  0  0  0  0  0  0  0  0  0  0  0
   35.9633   30.0752  -14.3547 H   0  0  0  0  0  0  0  0  0  0  0  0
   35.1231   29.5262  -16.6399 H   0  0  0  0  0  0  0  0  0  0  0  0
   36.8830   28.0320  -19.1240 H   0  0  0  0  0  0  0  0  0  0  0  0
   41.8620   25.5710  -17.6590 H   0  0  0  0  0  0  0  0  0  0  0  0
   42.4569   25.1483  -16.7043 H   0  0  0  0  0  0  0  0  0  0  0  0
   44.5224   24.4426  -15.5492 H   0  0  0  0  0  0  0  0  0  0  0  0
   45.4640   24.9856  -10.9062 H   0  0  0  0  0  0  0  0  0  0  0  0
   44.2299   23.9441  -11.6929 H   0  0  0  0  0  0  0  0  0  0  0  0
   45.9562   23.4476  -11.6929 H   0  0  0  0  0  0  0  0  0  0  0  0
   46.5468   26.3061  -11.6381 H   0  0  0  0  0  0  0  0  0  0  0  0
   47.4571   25.9905  -13.1541 H   0  0  0  0  0  0  0  0  0  0  0  0
   46.0881   27.1534  -13.1541 H   0  0  0  0  0  0  0  0  0  0  0  0
   46.8232   23.4042  -13.5330 H   0  0  0  0  0  0  0  0  0  0  0  0
   45.4888   23.6235  -14.7154 H   0  0  0  0  0  0  0  0  0  0  0  0
   46.8838   24.7551  -14.7154 H   0  0  0  0  0  0  0  0  0  0  0  0
  1  2  1  0
  2  3  2  0
  3  4  1  0
  4  5  1  0
  5  6  1  0
  6  7  1  0
  7  8  2  0
  8  9  1  0
  9 10  2  0
 10 11  1  0
 11 12  1  0
 11 13  2  0
 13 14  1  0
 14 15  2  0
 14 16  1  0
 16 17  1  0
  4 18  2  0
 18 19  1  0
 19 20  2  0
 20 21  1  0
 21 22  1  0
 21 23  1  0
 21 24  1  0
 20  2  1  0
 16  5  2  0
 13  7  1  0
  1 25  1  0
  1 26  1  0
  1 27  1  0
  3 28  1  0
  8 29  1  0
  9 30  1  0
 10 31  1  0
 12 32  1  0
 17 33  1  0
 18 34  1  0
 19 35  1  0
 22 36  1  0
 22 37  1  0
 22 38  1  0
 23 39  1  0
 23 40  1  0
 23 41  1  0
 24 42  1  0
 24 43  1  0
 24 44  1  0
M  END
>  <meeko>  (1) 
{"is_sidechain": [false], "free_energy": -5.964, "intermolecular_energy": -7.01, "internal_energy": 0.358}

$$$$
cand_043_out
     RDKit          3D

 44 46  0  0  0  0  0  0  0  0999 V2000
   44.8910   27.6750  -12.2450 C   0  0  0  0  0  0  0  0  0  0  0  0
   44.1000   26.7940  -13.1770 C   0  0  0  0  0  0  0  0  0  0  0  0
   42.8390   27.3090  -13.5690 C   0  0  0  0  0  0  0  0  0  0  0  0
   41.9800   26.6220  -14.4340 C   0  0  0  0  0  0  0  0  0  0  0  0
   40.6610   27.1930  -14.7810 C   0  0  0  0  0  0  0  0  0  0  0  0
   40.2350   26.8350  -16.0550 O   0  0  0  0  0  0  0  0  0  0  0  0
   39.0260   27.2980  -16.5050 C   0  0  0  0  0  0  0  0  0  0  0  0
   38.6450   26.9250  -17.7950 C   0  0  0  0  0  0  0  0  0  0  0  0
   37.4240   27.3610  -18.3140 C   0  0  0  0  0  0  0  0  0  0  0  0
   36.5840   28.1680  -17.5440 C   0  0  0  0  0  0  0  0  0  0  0  0
   36.9660   28.5380  -16.2570 C   0  0  0  0  0  0  0  0  0  0  0  0
   36.0970   29.3300  -15.5580 O   0  0  0  0  0  0  0  0  0  0  0  0
   38.1890   28.1030  -15.7390 C   0  0  0  0  0  0  0  0  0  0  0  0
   38.6290   28.4690  -14.3920 C   0  0  0  0  0  0  0  0  0  0  0  0
   37.9420   29.1700  -13.6510 O   0  0  0  0  0  0  0  0  0  0  0  0
   39.9440   27.9620  -13.9390 C   0  0  0  0  0  0  0  0  0  0  0  0
   40.3440   28.3040  -12.6600 O   0  0  0  0  0  0  0  0  0  0  0  0
   42.3960   25.3830  -14.9030 C   0  0  0  0  0  0  0  0  0  0  0  0
   43.6440   24.8630  -14.5400 C   0  0  0  0  0  0  0  0  0  0  0  0
   44.5450   25.5480  -13.6900 C   0  0  0  0  0  0  0  0  0  0  0  0
   45.9100   24.8880  -13.3540 C   0  0  0  0  0  0  0  0  0  0  0  0
   47.1180   25.7770  -13.7270 C   0  0  0  0  0  0  0  0  0  0  0  0
   46.1510   23.5520  -14.1140 C   0  0  0  0  0  0  0  0  0  0  0  0
   45.9520   24.5480  -11.8500 C   0  0  0  0  0  0  0  0  0  0  0  0
   44.6549   27.4121  -11.2033 H   0  0  0  0  0  0  0  0  0  0  0  0
   45.9661   27.5280  -12.4257 H   0  0  0  0  0  0  0  0  0  0  0  0
   44.6295   28.7281  -12.4257 H   0  0  0  0  0  0  0  0  0  0  0  0
   42.5232   28.2874  -13.1778 H   0  0  0  0  0  0  0  0  0  0  0  0
   39.3056   26.2885  -18.4020 H   0  0  0  0  0  0  0  0  0  0  0  0
   37.1236   27.0683  -19.3309 H   0  0  0  0  0  0  0  0  0  0  0  0
   35.6223   28.5108  -17.9533 H   0  0  0  0  0  0  0  0  0  0  0  0
   35.3670   28.9460  -15.1130 H   0  0  0  0  0  0  0  0  0  0  0  0
   41.2400   28.5170  -12.4910 H   0  0  0  0  0  0  0  0  0  0  0  0
   41.7376   24.8037  -15.5671 H   0  0  0  0  0  0  0  0  0  0  0  0
   43.9375   23.8783  -14.9328 H   0  0  0  0  0  0  0  0  0  0  0  0
   47.6062   26.1363  -12.8091 H   0  0  0  0  0  0  0  0  0  0  0  0
   47.8361   25.1904  -14.3187 H   0  0  0  0  0  0  0  0  0  0  0  0
   46.7714   26.6371  -14.3187 H   0  0  0  0  0  0  0  0  0  0  0  0
   46.2977   22.7386  -13.3882 H   0  0  0  0  0  0  0  0  0  0  0  0
   45.2790   23.3270  -14.7456 H   0  0  0  0  0  0  0  0  0  0  0  0
   47.0467   23.6459  -14.7456 H   0  0  0  0  0  0  0  0  0  0  0  0
   45.8380   25.4707  -11.2622 H   0  0  0  0  0  0  0  0  0  0  0  0
   45.1326   23.8553  -11.6077 H   0  0  0  0  0  0  0  0  0  0  0  0
   46.9153   24.0755  -11.6077 H   0  0  0  0  0  0  0  0  0  0  0  0
  1  2  1  0
  2  3  2  0
  3  4  1  0
  4  5  1  0
  5  6  1  0
  6  7  1  0
  7  8  2  0
  8  9  1  0
  9 10  2  0
 10 11  1  0
 11 12  1  0
 11 13  2  0
 13 14  1  0
 14 15  2  0
 14 16  1  0
 16 17  1  0
  4 18  2  0
 18 19  1  0
 19 20  2  0
 20 21  1  0
 21 22  1  0
 21 23  1  0
 21 24  1  0
 20  2  1  0
 16  5  2  0
 13  7  1  0
  1 25  1  0
  1 26  1  0
  1 27  1  0
  3 28  1  0
  8 29  1  0
  9 30  1  0
 10 31  1  0
 12 32  1  0
 17 33  1  0
 18 34  1  0
 19 35  1  0
 22 36  1  0
 22 37  1  0
 22 38  1  0
 23 39  1  0
 23 40  1  0
 23 41  1  0
 24 42  1  0
 24 43  1  0
 24 44  1  0
M  END
>  <meeko>  (2) 
{"is_sidechain": [false], "free_energy": -5.266, "intermolecular_energy": -6.065, "internal_energy": 0.233}

$$$$
cand_043_out
     RDKit          3D

 44 46  0  0  0  0  0  0  0  0999 V2000
   43.4390   26.8960  -11.7460 C   0  0  0  0  0  0  0  0  0  0  0  0
   43.0230   26.4330  -13.1180 C   0  0  0  0  0  0  0  0  0  0  0  0
   41.8120   26.9880  -13.6010 C   0  0  0  0  0  0  0  0  0  0  0  0
   41.2850   26.6700  -14.8570 C   0  0  0  0  0  0  0  0  0  0  0  0
   39.9980   27.2530  -15.2940 C   0  0  0  0  0  0  0  0  0  0  0  0
   39.6000   26.8050  -16.5490 O   0  0  0  0  0  0  0  0  0  0  0  0
   38.4220   27.2690  -17.0750 C   0  0  0  0  0  0  0  0  0  0  0  0
   38.0690   26.8050  -18.3430 C   0  0  0  0  0  0  0  0  0  0  0  0
   36.8810   27.2370  -18.9370 C   0  0  0  0  0  0  0  0  0  0  0  0
   36.0470   28.1310  -18.2640 C   0  0  0  0  0  0  0  0  0  0  0  0
   36.4010   28.5930  -16.9990 C   0  0  0  0  0  0  0  0  0  0  0  0
   35.5390   29.4670  -16.3960 O   0  0  0  0  0  0  0  0  0  0  0  0
   37.5910   28.1620  -16.4050 C   0  0  0  0  0  0  0  0  0  0  0  0
   38.0010   28.6220  -15.0780 C   0  0  0  0  0  0  0  0  0  0  0  0
   37.3170   29.4040  -14.4200 O   0  0  0  0  0  0  0  0  0  0  0  0
   39.2830   28.1110  -14.5410 C   0  0  0  0  0  0  0  0  0  0  0  0
   39.6540   28.5430  -13.2820 O   0  0  0  0  0  0  0  0  0  0  0  0
   41.9880   25.7620  -15.6380 C   0  0  0  0  0  0  0  0  0  0  0  0
   43.1950   25.2140  -15.1870 C   0  0  0  0  0  0  0  0  0  0  0  0
   43.7660   25.5390  -13.9330 C   0  0  0  0  0  0  0  0  0  0  0  0
   45.1140   24.8830  -13.5290 C   0  0  0  0  0  0  0  0  0  0  0  0
   46.3270   25.4870  -14.2720 C   0  0  0  0  0  0  0  0  0  0  0  0
   45.1750   23.3600  -13.8410 C   0  0  0  0  0  0  0  0  0  0  0  0
   45.3080   25.0230  -12.0040 C   0  0  0  0  0  0  0  0  0  0  0  0
   42.9090   26.3062  -10.9836 H   0  0  0  0  0  0  0  0  0  0  0  0
   44.5239   26.7597  -11.6263 H   0  0  0  0  0  0  0  0  0  0  0  0
   43.1878   27.9602  -11.6263 H   0  0  0  0  0  0  0  0  0  0  0  0
   41.2645   27.6972  -12.9628 H   0  0  0  0  0  0  0  0  0  0  0  0
   38.7255   26.1000  -18.8739 H   0  0  0  0  0  0  0  0  0  0  0  0
   36.6023   26.8721  -19.9366 H   0  0  0  0  0  0  0  0  0  0  0  0
   35.1112   28.4702  -18.7322 H   0  0  0  0  0  0  0  0  0  0  0  0
   35.8070   30.3490  -16.2280 H   0  0  0  0  0  0  0  0  0  0  0  0
   39.0660   29.0670  -12.7750 H   0  0  0  0  0  0  0  0  0  0  0  0
   41.5922   25.4700  -16.6219 H   0  0  0  0  0  0  0  0  0  0  0  0
   43.7228   24.4994  -15.8357 H   0  0  0  0  0  0  0  0  0  0  0  0
   47.0611   25.8526  -13.5389 H   0  0  0  0  0  0  0  0  0  0  0  0
   46.7920   24.7152  -14.9030 H   0  0  0  0  0  0  0  0  0  0  0  0
   45.9913   26.3232  -14.9030 H   0  0  0  0  0  0  0  0  0  0  0  0
   45.1977   22.7933  -12.8985 H   0  0  0  0  0  0  0  0  0  0  0  0
   44.2878   23.0690  -14.4225 H   0  0  0  0  0  0  0  0  0  0  0  0
   46.0826   23.1409  -14.4225 H   0  0  0  0  0  0  0  0  0  0  0  0
   44.5233   24.4567  -11.4810 H   0  0  0  0  0  0  0  0  0  0  0  0
   46.2951   24.6277  -11.7221 H   0  0  0  0  0  0  0  0  0  0  0  0
   45.2439   26.0843  -11.7221 H   0  0  0  0  0  0  0  0  0  0  0  0
  1  2  1  0
  2  3  2  0
  3  4  1  0
  4  5  1  0
  5  6  1  0
  6  7  1  0
  7  8  2  0
  8  9  1  0
  9 10  2  0
 10 11  1  0
 11 12  1  0
 11 13  2  0
 13 14  1  0
 14 15  2  0
 14 16  1  0
 16 17  1  0
  4 18  2  0
 18 19  1  0
 19 20  2  0
 20 21  1  0
 21 22  1  0
 21 23  1  0
 21 24  1  0
 20  2  1  0
 16  5  2  0
 13  7  1  0
  1 25  1  0
  1 26  1  0
  1 27  1  0
  3 28  1  0
  8 29  1  0
  9 30  1  0
 10 31  1  0
 12 32  1  0
 17 33  1  0
 18 34  1  0
 19 35  1  0
 22 36  1  0
 22 37  1  0
 22 38  1  0
 23 39  1  0
 23 40  1  0
 23 41  1  0
 24 42  1  0
 24 43  1  0
 24 44  1  0
M  END
>  <meeko>  (3) 
{"is_sidechain": [false], "free_energy": -3.693, "intermolecular_energy": -5.084, "internal_energy": 1.101}

$$$$
cand_043_out
     RDKit          3D

 44 46  0  0  0  0  0  0  0  0999 V2000
   43.9150   23.4480  -14.1600 C   0  0  0  0  0  0  0  0  0  0  0  0
   43.7650   24.9360  -13.9730 C   0  0  0  0  0  0  0  0  0  0  0  0
   42.4890   25.4600  -14.3020 C   0  0  0  0  0  0  0  0  0  0  0  0
   42.1780   26.8180  -14.1820 C   0  0  0  0  0  0  0  0  0  0  0  0
   40.8410   27.3130  -14.5730 C   0  0  0  0  0  0  0  0  0  0  0  0
   40.4620   26.8960  -15.8440 O   0  0  0  0  0  0  0  0  0  0  0  0
   39.2410   27.2850  -16.3330 C   0  0  0  0  0  0  0  0  0  0  0  0
   38.9070   26.8560  -17.6180 C   0  0  0  0  0  0  0  0  0  0  0  0
   37.6780   27.2150  -18.1750 C   0  0  0  0  0  0  0  0  0  0  0  0
   36.7830   28.0030  -17.4480 C   0  0  0  0  0  0  0  0  0  0  0  0
   37.1190   28.4300  -16.1660 C   0  0  0  0  0  0  0  0  0  0  0  0
   36.1970   29.1990  -15.5100 O   0  0  0  0  0  0  0  0  0  0  0  0
   38.3500   28.0710  -15.6090 C   0  0  0  0  0  0  0  0  0  0  0  0
   38.7420   28.4980  -14.2660 C   0  0  0  0  0  0  0  0  0  0  0  0
   38.0060   29.1870  -13.5610 O   0  0  0  0  0  0  0  0  0  0  0  0
   40.0700   28.0710  -13.7700 C   0  0  0  0  0  0  0  0  0  0  0  0
   40.4250   28.4700  -12.4950 O   0  0  0  0  0  0  0  0  0  0  0  0
   43.1800   27.6690  -13.7330 C   0  0  0  0  0  0  0  0  0  0  0  0
   44.4410   27.1700  -13.3870 C   0  0  0  0  0  0  0  0  0  0  0  0
   44.7750   25.7970  -13.4720 C   0  0  0  0  0  0  0  0  0  0  0  0
   46.2010   25.3430  -13.0570 C   0  0  0  0  0  0  0  0  0  0  0  0
   47.1350   26.5260  -12.7150 C   0  0  0  0  0  0  0  0  0  0  0  0
   46.9470   24.5590  -14.1740 C   0  0  0  0  0  0  0  0  0  0  0  0
   46.0970   24.3880  -11.8500 C   0  0  0  0  0  0  0  0  0  0  0  0
   43.9644   22.9580  -13.1764 H   0  0  0  0  0  0  0  0  0  0  0  0
   43.0514   23.0599  -14.7200 H   0  0  0  0  0  0  0  0  0  0  0  0
   44.8387   23.2401  -14.7200 H   0  0  0  0  0  0  0  0  0  0  0  0
   41.7129   24.7707  -14.6661 H   0  0  0  0  0  0  0  0  0  0  0  0
   39.6112   26.2356  -18.1917 H   0  0  0  0  0  0  0  0  0  0  0  0
   37.4143   26.8767  -19.1879 H   0  0  0  0  0  0  0  0  0  0  0  0
   35.8149   28.2857  -17.8872 H   0  0  0  0  0  0  0  0  0  0  0  0
   35.6330   28.8110  -14.8700 H   0  0  0  0  0  0  0  0  0  0  0  0
   41.2900   28.7880  -12.3280 H   0  0  0  0  0  0  0  0  0  0  0  0
   42.9801   28.7474  -13.6484 H   0  0  0  0  0  0  0  0  0  0  0  0
   45.2066   27.8762  -13.0333 H   0  0  0  0  0  0  0  0  0  0  0  0
   47.2144   26.6265  -11.6225 H   0  0  0  0  0  0  0  0  0  0  0  0
   48.1326   26.3402  -13.1396 H   0  0  0  0  0  0  0  0  0  0  0  0
   46.7228   27.4533  -13.1396 H   0  0  0  0  0  0  0  0  0  0  0  0
   47.6363   23.8346  -13.7157 H   0  0  0  0  0  0  0  0  0  0  0  0
   46.2155   24.0248  -14.7982 H   0  0  0  0  0  0  0  0  0  0  0  0
   47.5168   25.2631  -14.7982 H   0  0  0  0  0  0  0  0  0  0  0  0
   46.1601   24.9677  -10.9173 H   0  0  0  0  0  0  0  0  0  0  0  0
   45.1355   23.8549  -11.8860 H   0  0  0  0  0  0  0  0  0  0  0  0
   46.9212   23.6604  -11.8860 H   0  0  0  0  0  0  0  0  0  0  0  0
  1  2  1  0
  2  3  2  0
  3  4  1  0
  4  5  1  0
  5  6  1  0
  6  7  1  0
  7  8  2  0
  8  9  1  0
  9 10  2  0
 10 11  1  0
 11 12  1  0
 11 13  2  0
 13 14  1  0
 14 15  2  0
 14 16  1  0
 16 17  1  0
  4 18  2  0
 18 19  1  0
 19 20  2  0
 20 21  1  0
 21 22  1  0
 21 23  1  0
 21 24  1  0
 20  2  1  0
 16  5  2  0
 13  7  1  0
  1 25  1  0
  1 26  1  0
  1 27  1  0
  3 28  1  0
  8 29  1  0
  9 30  1  0
 10 31  1  0
 12 32  1  0
 17 33  1  0
 18 34  1  0
 19 35  1  0
 22 36  1  0
 22 37  1  0
 22 38  1  0
 23 39  1  0
 23 40  1  0
 23 41  1  0
 24 42  1  0
 24 43  1  0
 24 44  1  0
M  END
>  <meeko>  (4) 
{"is_sidechain": [false], "free_energy": -3.664, "intermolecular_energy": -3.941, "internal_energy": -0.007}

$$$$
cand_043_out
     RDKit          3D

 44 46  0  0  0  0  0  0  0  0999 V2000
   43.8650   23.1360  -14.0090 C   0  0  0  0  0  0  0  0  0  0  0  0
   43.6990   24.6300  -14.1060 C   0  0  0  0  0  0  0  0  0  0  0  0
   42.4770   25.0660  -14.6770 C   0  0  0  0  0  0  0  0  0  0  0  0
   42.1600   26.4190  -14.8370 C   0  0  0  0  0  0  0  0  0  0  0  0
   40.8840   26.8140  -15.4710 C   0  0  0  0  0  0  0  0  0  0  0  0
   40.1080   27.6340  -14.6590 O   0  0  0  0  0  0  0  0  0  0  0  0
   38.8960   28.0740  -15.1250 C   0  0  0  0  0  0  0  0  0  0  0  0
   38.1440   28.8810  -14.2710 C   0  0  0  0  0  0  0  0  0  0  0  0
   36.9010   29.3660  -14.6860 C   0  0  0  0  0  0  0  0  0  0  0  0
   36.4110   29.0430  -15.9520 C   0  0  0  0  0  0  0  0  0  0  0  0
   37.1630   28.2360  -16.8020 C   0  0  0  0  0  0  0  0  0  0  0  0
   36.6230   27.9580  -18.0280 O   0  0  0  0  0  0  0  0  0  0  0  0
   38.4060   27.7510  -16.3870 C   0  0  0  0  0  0  0  0  0  0  0  0
   39.2280   26.9010  -17.2490 C   0  0  0  0  0  0  0  0  0  0  0  0
   38.8680   26.5790  -18.3790 O   0  0  0  0  0  0  0  0  0  0  0  0
   40.5270   26.4330  -16.7120 C   0  0  0  0  0  0  0  0  0  0  0  0
   41.3010   25.6410  -17.5400 O   0  0  0  0  0  0  0  0  0  0  0  0
   43.1010   27.3530  -14.4240 C   0  0  0  0  0  0  0  0  0  0  0  0
   44.3070   26.9430  -13.8430 C   0  0  0  0  0  0  0  0  0  0  0  0
   44.6430   25.5830  -13.6440 C   0  0  0  0  0  0  0  0  0  0  0  0
   46.0040   25.2340  -12.9820 C   0  0  0  0  0  0  0  0  0  0  0  0
   46.9130   24.3740  -13.8890 C   0  0  0  0  0  0  0  0  0  0  0  0
   45.8580   24.4100  -11.6700 C   0  0  0  0  0  0  0  0  0  0  0  0
   46.7290   26.5400  -12.5970 C   0  0  0  0  0  0  0  0  0  0  0  0
   43.8980   22.8387  -12.9504 H   0  0  0  0  0  0  0  0  0  0  0  0
   43.0164   22.6400  -14.5029 H   0  0  0  0  0  0  0  0  0  0  0  0
   44.8017   22.8383  -14.5029 H   0  0  0  0  0  0  0  0  0  0  0  0
   41.7491   24.3103  -15.0074 H   0  0  0  0  0  0  0  0  0  0  0  0
   38.5290   29.1352  -13.2724 H   0  0  0  0  0  0  0  0  0  0  0  0
   36.3079   30.0034  -14.0137 H   0  0  0  0  0  0  0  0  0  0  0  0
   35.4324   29.4252  -16.2780 H   0  0  0  0  0  0  0  0  0  0  0  0
   36.8840   27.1870  -18.4910 H   0  0  0  0  0  0  0  0  0  0  0  0
   41.4420   25.8930  -18.4310 H   0  0  0  0  0  0  0  0  0  0  0  0
   42.8968   28.4259  -14.5547 H   0  0  0  0  0  0  0  0  0  0  0  0
   45.0260   27.7131  -13.5269 H   0  0  0  0  0  0  0  0  0  0  0  0
   47.5708   23.7517  -13.2645 H   0  0  0  0  0  0  0  0  0  0  0  0
   46.2903   23.7267  -14.5240 H   0  0  0  0  0  0  0  0  0  0  0  0
   47.5249   25.0315  -14.5240 H   0  0  0  0  0  0  0  0  0  0  0  0
   45.9762   25.0768  -10.8032 H   0  0  0  0  0  0  0  0  0  0  0  0
   44.8630   23.9421  -11.6397 H   0  0  0  0  0  0  0  0  0  0  0  0
   46.6317   23.6287  -11.6397 H   0  0  0  0  0  0  0  0  0  0  0  0
   46.7757   26.6241  -11.5012 H   0  0  0  0  0  0  0  0  0  0  0  0
   47.7494   26.5277  -13.0076 H   0  0  0  0  0  0  0  0  0  0  0  0
   46.1789   27.3995  -13.0076 H   0  0  0  0  0  0  0  0  0  0  0  0
  1  2  1  0
  2  3  2  0
  3  4  1  0
  4  5  1  0
  5  6  1  0
  6  7  1  0
  7  8  2  0
  8  9  1  0
  9 10  2  0
 10 11  1  0
 11 12  1  0
 11 13  2  0
 13 14  1  0
 14 15  2  0
 14 16  1  0
 16 17  1  0
  4 18  2  0
 18 19  1  0
 19 20  2  0
 20 21  1  0
 21 22  1  0
 21 23  1  0
 21 24  1  0
 20  2  1  0
 16  5  2  0
 13  7  1  0
  1 25  1  0
  1 26  1  0
  1 27  1  0
  3 28  1  0
  8 29  1  0
  9 30  1  0
 10 31  1  0
 12 32  1  0
 17 33  1  0
 18 34  1  0
 19 35  1  0
 22 36  1  0
 22 37  1  0
 22 38  1  0
 23 39  1  0
 23 40  1  0
 23 41  1  0
 24 42  1  0
 24 43  1  0
 24 44  1  0
M  END
>  <meeko>  (5) 
{"is_sidechain": [false], "free_energy": -3.072, "intermolecular_energy": -3.159, "internal_energy": -0.093}

$$$$
