cand_029_out
     RDKit          3D

 50 53  0  0  0  0  0  0  0  0999 V2000
   41.3090   26.8310  -10.9550 C   0  0  0  0  0  0  0  0  0  0  0  0
   42.5730   26.8720  -11.8010 C   0  0  0  0  0  0  0  0  0  0  0  0
   42.2830   26.6440  -13.2670 C   0  0  0  0  0  0  0  0  0  0  0  0
   41.0610   27.1070  -13.7960 C   0  0  0  0  0  0  0  0  0  0  0  0
   40.7200   26.9070  -15.1420 C   0  0  0  0  0  0  0  0  0  0  0  0
   39.4410   27.4350  -15.6620 C   0  0  0  0  0  0  0  0  0  0  0  0
   39.1120   26.9200  -16.9110 O   0  0  0  0  0  0  0  0  0  0  0  0
   37.9490   27.3270  -17.5130 C   0  0  0  0  0  0  0  0  0  0  0  0
   37.6530   26.7750  -18.7590 C   0  0  0  0  0  0  0  0  0  0  0  0
   36.4850   27.1490  -19.4270 C   0  0  0  0  0  0  0  0  0  0  0  0
   35.6140   28.0740  -18.8490 C   0  0  0  0  0  0  0  0  0  0  0  0
   35.9120   28.6240  -17.6040 C   0  0  0  0  0  0  0  0  0  0  0  0
   35.0150   29.5240  -17.0970 O   0  0  0  0  0  0  0  0  0  0  0  0
   37.0800   28.2490  -16.9370 C   0  0  0  0  0  0  0  0  0  0  0  0
   37.4310   28.8030  -15.6280 C   0  0  0  0  0  0  0  0  0  0  0  0
   36.7190   29.6260  -15.0570 O   0  0  0  0  0  0  0  0  0  0  0  0
   38.6890   28.3350  -15.0010 C   0  0  0  0  0  0  0  0  0  0  0  0
   39.0170   28.8750  -13.7710 O   0  0  0  0  0  0  0  0  0  0  0  0
   41.6350   26.2450  -15.9640 C   0  0  0  0  0  0  0  0  0  0  0  0
   42.8470   25.7730  -15.4510 C   0  0  0  0  0  0  0  0  0  0  0  0
   43.1860   25.9560  -14.1020 C   0  0  0  0  0  0  0  0  0  0  0  0
   44.4050   25.4870  -13.5670 N   0  0  0  0  0  0  0  0  0  0  0  0
   44.8930   24.2580  -14.2120 C   0  0  0  0  0  0  0  0  0  0  0  0
   46.0690   23.7070  -13.4030 C   0  0  0  0  0  0  0  0  0  0  0  0
   47.1700   24.7550  -13.2490 C   0  0  0  0  0  0  0  0  0  0  0  0
   46.6080   26.0550  -12.6750 C   0  0  0  0  0  0  0  0  0  0  0  0
   45.4150   26.5550  -13.4910 C   0  0  0  0  0  0  0  0  0  0  0  0
   41.5807   26.8398   -9.8891 H   0  0  0  0  0  0  0  0  0  0  0  0
   40.6871   27.7094  -11.1821 H   0  0  0  0  0  0  0  0  0  0  0  0
   40.7453   25.9141  -11.1821 H   0  0  0  0  0  0  0  0  0  0  0  0
   43.0476   27.8572  -11.6822 H   0  0  0  0  0  0  0  0  0  0  0  0
   43.2372   26.0653  -11.4574 H   0  0  0  0  0  0  0  0  0  0  0  0
   40.3579   27.6379  -13.1374 H   0  0  0  0  0  0  0  0  0  0  0  0
   38.3387   26.0458  -19.2151 H   0  0  0  0  0  0  0  0  0  0  0  0
   36.2511   26.7141  -20.4099 H   0  0  0  0  0  0  0  0  0  0  0  0
   34.6940   28.3682  -19.3754 H   0  0  0  0  0  0  0  0  0  0  0  0
   34.1040   29.3090  -17.0620 H   0  0  0  0  0  0  0  0  0  0  0  0
   38.8500   28.3890  -12.9870 H   0  0  0  0  0  0  0  0  0  0  0  0
   41.3992   26.0932  -17.0277 H   0  0  0  0  0  0  0  0  0  0  0  0
   43.5476   25.2485  -16.1174 H   0  0  0  0  0  0  0  0  0  0  0  0
   44.0852   23.5121  -14.2441 H   0  0  0  0  0  0  0  0  0  0  0  0
   45.2187   24.4801  -15.2389 H   0  0  0  0  0  0  0  0  0  0  0  0
   45.7118   23.4120  -12.4053 H   0  0  0  0  0  0  0  0  0  0  0  0
   46.4845   22.8398  -13.9371 H   0  0  0  0  0  0  0  0  0  0  0  0
   47.9445   24.3670  -12.5711 H   0  0  0  0  0  0  0  0  0  0  0  0
   47.5977   24.9642  -14.2406 H   0  0  0  0  0  0  0  0  0  0  0  0
   46.2840   25.8782  -11.6388 H   0  0  0  0  0  0  0  0  0  0  0  0
   47.3977   26.8198  -12.7118 H   0  0  0  0  0  0  0  0  0  0  0  0
   44.9799   27.4401  -13.0038 H   0  0  0  0  0  0  0  0  0  0  0  0
   45.7456   26.8267  -14.5044 H   0  0  0  0  0  0  0  0  0  0  0  0
  1  2  1  0
  2  3  1  0
  3  4  2  0
  4  5  1  0
  5  6  1  0
  6  7  1  0
  7  8  1  0
  8  9  2  0
  9 10  1  0
 10 11  2  0
 11 12  1  0
 12 13  1  0
 12 14  2  0
 14 15  1  0
 15 16  2  0
 15 17  1  0
 17 18  1  0
  5 19  2  0
 19 20  1  0
 20 21  2  0
 21 22  1  0
 22 23  1  0
 23 24  1  0
 24 25  1  0
 25 26  1  0
 26 27  1  0
 21  3  1  0
 27 22  1  0
 17  6  2  0
 14  8  1  0
  1 28  1  0
  1 29  1  0
  1 30  1  0
  2 31  1  0
  2 32  1  0
  4 33  1  0
  9 34  1  0
 10 35  1  0
 11 36  1  0
 13 37  1  0
 18 38  1  0
 19 39  1  0
 20 40  1  0
 23 41  1  0
 23 42  1  0
 24 43  1  0
 24 44  1  0
 25 45  1  0
 25 46  1  0
 26 47  1  0
 26 48  1  0
 27 49  1  0
 27 50  1  0
M  END
>  <meeko>  (1) 
{"is_sidechain": [false], "free_energy": -3.312, "intermolecular_energy": -4.087, "internal_energy": 0.007}

$$$$
cand_029_out
     RDKit          3D

 50 53  0  0  0  0  0  0  0  0999 V2000
   41.6270   26.8960  -11.2010 C   0  0  0  0  0  0  0  0  0  0  0  0
   42.9530   26.8880  -11.9480 C   0  0  0  0  0  0  0  0  0  0  0  0
   42.7860   26.4930  -13.3980 C   0  0  0  0  0  0  0  0  0  0  0  0
   41.5980   26.8510  -14.0650 C   0  0  0  0  0  0  0  0  0  0  0  0
   41.3690   26.4960  -15.4030 C   0  0  0  0  0  0  0  0  0  0  0  0
   40.1220   26.9170  -16.0730 C   0  0  0  0  0  0  0  0  0  0  0  0
   39.3440   27.7600  -15.2880 O   0  0  0  0  0  0  0  0  0  0  0  0
   38.1550   28.2270  -15.7880 C   0  0  0  0  0  0  0  0  0  0  0  0
   37.4140   29.0800  -14.9700 C   0  0  0  0  0  0  0  0  0  0  0  0
   36.1940   29.5890  -15.4190 C   0  0  0  0  0  0  0  0  0  0  0  0
   35.7140   29.2440  -16.6840 C   0  0  0  0  0  0  0  0  0  0  0  0
   36.4570   28.3920  -17.4990 C   0  0  0  0  0  0  0  0  0  0  0  0
   35.9280   28.0960  -18.7260 O   0  0  0  0  0  0  0  0  0  0  0  0
   37.6780   27.8840  -17.0490 C   0  0  0  0  0  0  0  0  0  0  0  0
   38.4890   26.9850  -17.8730 C   0  0  0  0  0  0  0  0  0  0  0  0
   38.1320   26.6320  -18.9950 O   0  0  0  0  0  0  0  0  0  0  0  0
   39.7710   26.5070  -17.3070 C   0  0  0  0  0  0  0  0  0  0  0  0
   40.5220   25.6490  -18.0890 O   0  0  0  0  0  0  0  0  0  0  0  0
   42.3650   25.7810  -16.0760 C   0  0  0  0  0  0  0  0  0  0  0  0
   43.5450   25.4120  -15.4230 C   0  0  0  0  0  0  0  0  0  0  0  0
   43.7710   25.7510  -14.0800 C   0  0  0  0  0  0  0  0  0  0  0  0
   44.9570   25.3880  -13.4070 N   0  0  0  0  0  0  0  0  0  0  0  0
   45.4820   24.0750  -13.8150 C   0  0  0  0  0  0  0  0  0  0  0  0
   46.6090   23.6740  -12.8600 C   0  0  0  0  0  0  0  0  0  0  0  0
   47.6980   24.7440  -12.8130 C   0  0  0  0  0  0  0  0  0  0  0  0
   47.1030   26.1140  -12.4910 C   0  0  0  0  0  0  0  0  0  0  0  0
   45.9600   26.4640  -13.4450 C   0  0  0  0  0  0  0  0  0  0  0  0
   41.8166   26.8949  -10.1175 H   0  0  0  0  0  0  0  0  0  0  0  0
   41.0585   27.7976  -11.4728 H   0  0  0  0  0  0  0  0  0  0  0  0
   41.0476   26.0013  -11.4728 H   0  0  0  0  0  0  0  0  0  0  0  0
   43.3916   27.8958  -11.9031 H   0  0  0  0  0  0  0  0  0  0  0  0
   43.6081   26.1461  -11.4679 H   0  0  0  0  0  0  0  0  0  0  0  0
   40.8305   27.4233  -13.5232 H   0  0  0  0  0  0  0  0  0  0  0  0
   37.7904   29.3512  -13.9726 H   0  0  0  0  0  0  0  0  0  0  0  0
   35.6099   30.2630  -14.7751 H   0  0  0  0  0  0  0  0  0  0  0  0
   34.7517   29.6437  -17.0364 H   0  0  0  0  0  0  0  0  0  0  0  0
   36.0810   27.2560  -19.1120 H   0  0  0  0  0  0  0  0  0  0  0  0
   40.7680   25.9010  -18.9580 H   0  0  0  0  0  0  0  0  0  0  0  0
   42.2184   25.5059  -17.1309 H   0  0  0  0  0  0  0  0  0  0  0  0
   44.3109   24.8451  -15.9725 H   0  0  0  0  0  0  0  0  0  0  0  0
   44.6775   23.3260  -13.7722 H   0  0  0  0  0  0  0  0  0  0  0  0
   45.8670   24.1306  -14.8439 H   0  0  0  0  0  0  0  0  0  0  0  0
   46.1935   23.5400  -11.8504 H   0  0  0  0  0  0  0  0  0  0  0  0
   47.0563   22.7365  -13.2221 H   0  0  0  0  0  0  0  0  0  0  0  0
   48.4308   24.4782  -12.0369 H   0  0  0  0  0  0  0  0  0  0  0  0
   48.1836   24.7947  -13.7987 H   0  0  0  0  0  0  0  0  0  0  0  0
   46.7187   26.1040  -11.4604 H   0  0  0  0  0  0  0  0  0  0  0  0
   47.8934   26.8704  -12.6054 H   0  0  0  0  0  0  0  0  0  0  0  0
   45.4963   27.4114  -13.1329 H   0  0  0  0  0  0  0  0  0  0  0  0
   46.3499   26.5723  -14.4679 H   0  0  0  0  0  0  0  0  0  0  0  0
  1  2  1  0
  2  3  1  0
  3  4  2  0
  4  5  1  0
  5  6  1  0
  6  7  1  0
  7  8  1  0
  8  9  2  0
  9 10  1  0
 10 11  2  0
 11 12  1  0
 12 13  1  0
 12 14  2  0
 14 15  1  0
 15 16  2  0
 15 17  1  0
 17 18  1  0
  5 19  2  0
 19 20  1  0
 20 21  2  0
 21 22  1  0
 22 23  1  0
 23 24  1  0
 24 25  1  0
 25 26  1  0
 26 27  1  0
 21  3  1  0
 27 22  1  0
 17  6  2  0
 14  8  1  0
  1 28  1  0
  1 29  1  0
  1 30  1  0
  2 31  1  0
  2 32  1  0
  4 33  1  0
  9 34  1  0
 10 35  1  0
 11 36  1  0
 13 37  1  0
 18 38  1  0
 19 39  1  0
 20 40  1  0
 23 41  1  0
 23 42  1  0
 24 43  1  0
 24 44  1  0
 25 45  1  0
 25 46  1  0
 26 47  1  0
 26 48  1  0
 27 49  1  0
 27 50  1  0
M  END
>  <meeko>  (2) 
{"is_sidechain": [false], "free_energy": -2.633, "intermolecular_energy": -3.16, "internal_energy": -0.081}

$$$$
cand_029_out
     RDKit          3D

 50 53  0  0  0  0  0  0  0  0999 V2000
   36.9360   29.9770  -13.7760 C   0  0  0  0  0  0  0  0  0  0  0  0
   36.4640   29.2660  -15.0360 C   0  0  0  0  0  0  0  0  0  0  0  0
   37.5230   28.3460  -15.6000 C   0  0  0  0  0  0  0  0  0  0  0  0
   38.6520   28.0480  -14.8100 C   0  0  0  0  0  0  0  0  0  0  0  0
   39.6810   27.2200  -15.2820 C   0  0  0  0  0  0  0  0  0  0  0  0
   40.8330   26.9090  -14.4100 C   0  0  0  0  0  0  0  0  0  0  0  0
   41.8890   26.3220  -15.0980 O   0  0  0  0  0  0  0  0  0  0  0  0
   43.0240   25.9800  -14.4080 C   0  0  0  0  0  0  0  0  0  0  0  0
   44.0630   25.4050  -15.1400 C   0  0  0  0  0  0  0  0  0  0  0  0
   45.2440   25.0320  -14.4980 C   0  0  0  0  0  0  0  0  0  0  0  0
   45.3880   25.2310  -13.1240 C   0  0  0  0  0  0  0  0  0  0  0  0
   44.3490   25.8060  -12.3940 C   0  0  0  0  0  0  0  0  0  0  0  0
   44.5560   25.9730  -11.0520 O   0  0  0  0  0  0  0  0  0  0  0  0
   43.1670   26.1800  -13.0380 C   0  0  0  0  0  0  0  0  0  0  0  0
   42.0510   26.7860  -12.3090 C   0  0  0  0  0  0  0  0  0  0  0  0
   42.0990   26.9880  -11.0980 O   0  0  0  0  0  0  0  0  0  0  0  0
   40.8440   27.1520  -13.0860 C   0  0  0  0  0  0  0  0  0  0  0  0
   39.7920   27.7110  -12.3840 O   0  0  0  0  0  0  0  0  0  0  0  0
   39.5570   26.6770  -16.5640 C   0  0  0  0  0  0  0  0  0  0  0  0
   38.4470   26.9710  -17.3610 C   0  0  0  0  0  0  0  0  0  0  0  0
   37.4230   27.8110  -16.9000 C   0  0  0  0  0  0  0  0  0  0  0  0
   36.2940   28.1180  -17.6910 N   0  0  0  0  0  0  0  0  0  0  0  0
   36.0190   29.5600  -17.7840 C   0  0  0  0  0  0  0  0  0  0  0  0
   34.6540   29.7630  -18.4440 C   0  0  0  0  0  0  0  0  0  0  0  0
   34.5940   29.0740  -19.8060 C   0  0  0  0  0  0  0  0  0  0  0  0
   34.9870   27.6020  -19.6900 C   0  0  0  0  0  0  0  0  0  0  0  0
   36.3400   27.4400  -18.9960 C   0  0  0  0  0  0  0  0  0  0  0  0
   36.5748   29.4329  -12.8908 H   0  0  0  0  0  0  0  0  0  0  0  0
   38.0355   30.0093  -13.7632 H   0  0  0  0  0  0  0  0  0  0  0  0
   36.5389   31.0027  -13.7632 H   0  0  0  0  0  0  0  0  0  0  0  0
   35.5702   28.6721  -14.7945 H   0  0  0  0  0  0  0  0  0  0  0  0
   36.2415   30.0315  -15.7939 H   0  0  0  0  0  0  0  0  0  0  0  0
   38.7277   28.4751  -13.7991 H   0  0  0  0  0  0  0  0  0  0  0  0
   43.9511   25.2458  -16.2227 H   0  0  0  0  0  0  0  0  0  0  0  0
   46.0636   24.5800  -15.0759 H   0  0  0  0  0  0  0  0  0  0  0  0
   46.3190   24.9348  -12.6185 H   0  0  0  0  0  0  0  0  0  0  0  0
   45.1700   26.6130  -10.7490 H   0  0  0  0  0  0  0  0  0  0  0  0
   39.2460   27.1700  -11.8490 H   0  0  0  0  0  0  0  0  0  0  0  0
   40.3422   26.0105  -16.9502 H   0  0  0  0  0  0  0  0  0  0  0  0
   38.3753   26.5354  -18.3685 H   0  0  0  0  0  0  0  0  0  0  0  0
   36.0107   30.0000  -16.7759 H   0  0  0  0  0  0  0  0  0  0  0  0
   36.7996   30.0501  -18.3843 H   0  0  0  0  0  0  0  0  0  0  0  0
   33.8739   29.3411  -17.7932 H   0  0  0  0  0  0  0  0  0  0  0  0
   34.4936   30.8413  -18.5905 H   0  0  0  0  0  0  0  0  0  0  0  0
   33.5693   29.1432  -20.1998 H   0  0  0  0  0  0  0  0  0  0  0  0
   35.3009   29.5741  -20.4844 H   0  0  0  0  0  0  0  0  0  0  0  0
   34.2197   27.0714  -19.1071 H   0  0  0  0  0  0  0  0  0  0  0  0
   35.0651   27.1831  -20.7041 H   0  0  0  0  0  0  0  0  0  0  0  0
   36.5531   26.3709  -18.8487 H   0  0  0  0  0  0  0  0  0  0  0  0
   37.1316   27.8840  -19.6174 H   0  0  0  0  0  0  0  0  0  0  0  0
  1  2  1  0
  2  3  1  0
  3  4  2  0
  4  5  1  0
  5  6  1  0
  6  7  1  0
  7  8  1  0
  8  9  2  0
  9 10  1  0
 10 11  2  0
 11 12  1  0
 12 13  1  0
 12 14  2  0
 14 15  1  0
 15 16  2  0
 15 17  1  0
 17 18  1  0
  5 19  2  0
 19 20  1  0
 20 21  2  0
 21 22  1  0
 22 23  1  0
 23 24  1  0
 24 25  1  0
 25 26  1  0
 26 27  1  0
 21  3  1  0
 27 22  1  0
 17  6  2  0
 14  8  1  0
  1 28  1  0
  1 29  1  0
  1 30  1  0
  2 31  1  0
  2 32  1  0
  4 33  1  0
  9 34  1  0
 10 35  1  0
 11 36  1  0
 13 37  1  0
 18 38  1  0
 19 39  1  0
 20 40  1  0
 23 41  1  0
 23 42  1  0
 24 43  1  0
 24 44  1  0
 25 45  1  0
 25 46  1  0
 26 47  1  0
 26 48  1  0
 27 49  1  0
 27 50  1  0
M  END
>  <meeko>  (3) 
{"is_sidechain": [false], "free_energy": -2.021, "intermolecular_energy": -3.096, "internal_energy": 0.609}

$$$$
cand_029_out
     RDKit          3D

 50 53  0  0  0  0  0  0  0  0999 V2000
   37.2200   29.6610  -14.0110 C   0  0  0  0  0  0  0  0  0  0  0  0
   36.6470   29.1910  -15.3400 C   0  0  0  0  0  0  0  0  0  0  0  0
   37.5760   28.2320  -16.0510 C   0  0  0  0  0  0  0  0  0  0  0  0
   38.7700   27.8450  -15.4120 C   0  0  0  0  0  0  0  0  0  0  0  0
   39.6860   26.9770  -16.0260 C   0  0  0  0  0  0  0  0  0  0  0  0
   40.9120   26.5740  -15.3070 C   0  0  0  0  0  0  0  0  0  0  0  0
   40.8940   26.9300  -13.9630 O   0  0  0  0  0  0  0  0  0  0  0  0
   41.9730   26.6160  -13.1770 C   0  0  0  0  0  0  0  0  0  0  0  0
   41.9050   26.9810  -11.8320 C   0  0  0  0  0  0  0  0  0  0  0  0
   42.9710   26.6940  -10.9780 C   0  0  0  0  0  0  0  0  0  0  0  0
   44.1050   26.0420  -11.4680 C   0  0  0  0  0  0  0  0  0  0  0  0
   44.1690   25.6780  -12.8110 C   0  0  0  0  0  0  0  0  0  0  0  0
   45.3090   25.0440  -13.2240 O   0  0  0  0  0  0  0  0  0  0  0  0
   43.1020   25.9660  -13.6650 C   0  0  0  0  0  0  0  0  0  0  0  0
   43.1300   25.6030  -15.0830 C   0  0  0  0  0  0  0  0  0  0  0  0
   44.0940   25.0330  -15.5900 O   0  0  0  0  0  0  0  0  0  0  0  0
   41.9450   25.9470  -15.9020 C   0  0  0  0  0  0  0  0  0  0  0  0
   41.9880   25.6110  -17.2430 O   0  0  0  0  0  0  0  0  0  0  0  0
   39.3780   26.4840  -17.2970 C   0  0  0  0  0  0  0  0  0  0  0  0
   38.2010   26.8670  -17.9460 C   0  0  0  0  0  0  0  0  0  0  0  0
   37.2900   27.7470  -17.3430 C   0  0  0  0  0  0  0  0  0  0  0  0
   36.0960   28.1420  -17.9840 N   0  0  0  0  0  0  0  0  0  0  0  0
   35.8950   29.6000  -18.0000 C   0  0  0  0  0  0  0  0  0  0  0  0
   34.4750   29.8990  -18.4860 C   0  0  0  0  0  0  0  0  0  0  0  0
   34.2150   29.2640  -19.8510 C   0  0  0  0  0  0  0  0  0  0  0  0
   34.5350   27.7700  -19.8280 C   0  0  0  0  0  0  0  0  0  0  0  0
   35.9490   27.5110  -19.3050 C   0  0  0  0  0  0  0  0  0  0  0  0
   36.6577   29.1998  -13.1857 H   0  0  0  0  0  0  0  0  0  0  0  0
   38.2778   29.3670  -13.9433 H   0  0  0  0  0  0  0  0  0  0  0  0
   37.1386   30.7559  -13.9433 H   0  0  0  0  0  0  0  0  0  0  0  0
   35.6884   28.6845  -15.1541 H   0  0  0  0  0  0  0  0  0  0  0  0
   36.5130   30.0734  -15.9830 H   0  0  0  0  0  0  0  0  0  0  0  0
   38.9901   28.2328  -14.4064 H   0  0  0  0  0  0  0  0  0  0  0  0
   41.0123   27.4943  -11.4452 H   0  0  0  0  0  0  0  0  0  0  0  0
   42.9181   26.9817   -9.9176 H   0  0  0  0  0  0  0  0  0  0  0  0
   44.9454   25.8166  -10.7950 H   0  0  0  0  0  0  0  0  0  0  0  0
   45.9130   25.4850  -13.7880 H   0  0  0  0  0  0  0  0  0  0  0  0
   42.7960   25.6710  -17.7140 H   0  0  0  0  0  0  0  0  0  0  0  0
   40.0698   25.7867  -17.7921 H   0  0  0  0  0  0  0  0  0  0  0  0
   37.9848   26.4707  -18.9491 H   0  0  0  0  0  0  0  0  0  0  0  0
   36.0305   30.0026  -16.9853 H   0  0  0  0  0  0  0  0  0  0  0  0
   36.6264   30.0698  -18.6740 H   0  0  0  0  0  0  0  0  0  0  0  0
   33.7543   29.4959  -17.7593 H   0  0  0  0  0  0  0  0  0  0  0  0
   34.3606   30.9889  -18.5805 H   0  0  0  0  0  0  0  0  0  0  0  0
   33.1563   29.4014  -20.1162 H   0  0  0  0  0  0  0  0  0  0  0  0
   34.8639   29.7507  -20.5940 H   0  0  0  0  0  0  0  0  0  0  0  0
   33.8124   27.2591  -19.1747 H   0  0  0  0  0  0  0  0  0  0  0  0
   34.4702   27.3858  -20.8567 H   0  0  0  0  0  0  0  0  0  0  0  0
   36.1164   26.4274  -19.2165 H   0  0  0  0  0  0  0  0  0  0  0  0
   36.6860   27.9352  -20.0028 H   0  0  0  0  0  0  0  0  0  0  0  0
  1  2  1  0
  2  3  1  0
  3  4  2  0
  4  5  1  0
  5  6  1  0
  6  7  1  0
  7  8  1  0
  8  9  2  0
  9 10  1  0
 10 11  2  0
 11 12  1  0
 12 13  1  0
 12 14  2  0
 14 15  1  0
 15 16  2  0
 15 17  1  0
 17 18  1  0
  5 19  2  0
 19 20  1  0
 20 21  2  0
 21 22  1  0
 22 23  1  0
 23 24  1  0
 24 25  1  0
 25 26  1  0
 26 27  1  0
 21  3  1  0
 27 22  1  0
 17  6  2  0
 14  8  1  0
  1 28  1  0
  1 29  1  0
  1 30  1  0
  2 31  1  0
  2 32  1  0
  4 33  1  0
  9 34  1  0
 10 35  1  0
 11 36  1  0
 13 37  1  0
 18 38  1  0
 19 39  1  0
 20 40  1  0
 23 41  1  0
 23 42  1  0
 24 43  1  0
 24 44  1  0
 25 45  1  0
 25 46  1  0
 26 47  1  0
 26 48  1  0
 27 49  1  0
 27 50  1  0
M  END
>  <meeko>  (4) 
{"is_sidechain": [false], "free_energy": -0.408, "intermolecular_energy": -1.063, "internal_energy": 0.567}

$$$$
