cand_004_out
     RDKit          3D

 38 40  0  0  0  0  0  0  0  0999 V2000
   41.8580   26.9080  -11.0130 C   0  0  0  0  0  0  0  0  0  0  0  0
   43.1910   26.6160  -11.6860 C   0  0  0  0  0  0  0  0  0  0  0  0
   43.0180   26.2350  -13.1410 C   0  0  0  0  0  0  0  0  0  0  0  0
   41.8430   26.6550  -13.8010 C   0  0  0  0  0  0  0  0  0  0  0  0
   41.5910   26.3280  -15.1410 C   0  0  0  0  0  0  0  0  0  0  0  0
   40.3700   26.7870  -15.8370 C   0  0  0  0  0  0  0  0  0  0  0  0
   39.5810   27.6180  -15.0510 O   0  0  0  0  0  0  0  0  0  0  0  0
   38.4150   28.1160  -15.5760 C   0  0  0  0  0  0  0  0  0  0  0  0
   37.6450   28.9330  -14.7460 C   0  0  0  0  0  0  0  0  0  0  0  0
   36.4480   29.4750  -15.2200 C   0  0  0  0  0  0  0  0  0  0  0  0
   36.0220   29.1990  -16.5210 C   0  0  0  0  0  0  0  0  0  0  0  0
   36.7920   28.3840  -17.3460 C   0  0  0  0  0  0  0  0  0  0  0  0
   36.3150   28.1560  -18.6080 O   0  0  0  0  0  0  0  0  0  0  0  0
   37.9890   27.8420  -16.8720 C   0  0  0  0  0  0  0  0  0  0  0  0
   38.8280   26.9800  -17.7050 C   0  0  0  0  0  0  0  0  0  0  0  0
   38.5240   26.6970  -18.8630 O   0  0  0  0  0  0  0  0  0  0  0  0
   40.0730   26.4500  -17.1060 C   0  0  0  0  0  0  0  0  0  0  0  0
   40.8660   25.6470  -17.9050 O   0  0  0  0  0  0  0  0  0  0  0  0
   42.5480   25.5790  -15.8320 C   0  0  0  0  0  0  0  0  0  0  0  0
   43.7170   25.1530  -15.1950 C   0  0  0  0  0  0  0  0  0  0  0  0
   43.9670   25.4650  -13.8470 C   0  0  0  0  0  0  0  0  0  0  0  0
   45.2530   24.9810  -13.2070 C   0  0  0  0  0  0  0  0  0  0  0  0
   46.1520   25.9810  -12.9930 F   0  0  0  0  0  0  0  0  0  0  0  0
   45.8950   24.0510  -13.9680 F   0  0  0  0  0  0  0  0  0  0  0  0
   45.0660   24.3940  -11.9910 F   0  0  0  0  0  0  0  0  0  0  0  0
   41.9849   26.8802   -9.9207 H   0  0  0  0  0  0  0  0  0  0  0  0
   41.5049   27.9048  -11.3159 H   0  0  0  0  0  0  0  0  0  0  0  0
   41.1205   26.1501  -11.3159 H   0  0  0  0  0  0  0  0  0  0  0  0
   43.8236   27.5139  -11.6264 H   0  0  0  0  0  0  0  0  0  0  0  0
   43.6571   25.7669  -11.1646 H   0  0  0  0  0  0  0  0  0  0  0  0
   41.1048   27.2553  -13.2489 H   0  0  0  0  0  0  0  0  0  0  0  0
   37.9803   29.1494  -13.7209 H   0  0  0  0  0  0  0  0  0  0  0  0
   35.8404   30.1197  -14.5680 H   0  0  0  0  0  0  0  0  0  0  0  0
   35.0788   29.6252  -16.8935 H   0  0  0  0  0  0  0  0  0  0  0  0
   36.5970   28.6960  -19.3200 H   0  0  0  0  0  0  0  0  0  0  0  0
   40.9350   25.8220  -18.8240 H   0  0  0  0  0  0  0  0  0  0  0  0
   42.3793   25.3222  -16.8882 H   0  0  0  0  0  0  0  0  0  0  0  0
   44.4548   24.5630  -15.7585 H   0  0  0  0  0  0  0  0  0  0  0  0
  1  2  1  0
  2  3  1  0
  3  4  2  0
  4  5  1  0
  5  6  1  0
  6  7  1  0
  7  8  1  0
  8  9  2  0
  9 10  1  0
 10 11  2  0
 11 12  1  0
 12 13  1  0
 12 14  2  0
 14 15  1  0
 15 16  2  0
 15 17  1  0
 17 18  1  0
  5 19  2  0
 19 20  1  0
 20 21  2  0
 21 22  1  0
 22 23  1  0
 22 24  1  0
 22 25  1  0
 21  3  1  0
 17  6  2  0
 14  8  1  0
  1 26  1  0
  1 27  1  0
  1 28  1  0
  2 29  1  0
  2 30  1  0
  4 31  1  0
  9 32  1  0
 10 33  1  0
 11 34  1  0
 13 35  1  0
 18 36  1  0
 19 37  1  0
 20 38  1  0
M  END
>  <meeko>  (1) 
{"is_sidechain": [false], "free_energy": -7.509, "intermolecular_energy": -9.265, "internal_energy": 0.122}

$$$$
cand_004_out
     RDKit          3D

 38 40  0  0  0  0  0  0  0  0999 V2000
   46.6970   27.3130  -13.5100 C   0  0  0  0  0  0  0  0  0  0  0  0
   45.4340   27.1550  -12.6760 C   0  0  0  0  0  0  0  0  0  0  0  0
   44.3600   26.3870  -13.4170 C   0  0  0  0  0  0  0  0  0  0  0  0
   43.1230   27.0260  -13.6400 C   0  0  0  0  0  0  0  0  0  0  0  0
   42.0650   26.3820  -14.2970 C   0  0  0  0  0  0  0  0  0  0  0  0
   40.7770   27.0600  -14.5500 C   0  0  0  0  0  0  0  0  0  0  0  0
   40.2770   26.8150  -15.8230 O   0  0  0  0  0  0  0  0  0  0  0  0
   39.0850   27.3850  -16.1890 C   0  0  0  0  0  0  0  0  0  0  0  0
   38.6280   27.1250  -17.4820 C   0  0  0  0  0  0  0  0  0  0  0  0
   37.4190   27.6740  -17.9170 C   0  0  0  0  0  0  0  0  0  0  0  0
   36.6690   28.4830  -17.0600 C   0  0  0  0  0  0  0  0  0  0  0  0
   37.1270   28.7410  -15.7710 C   0  0  0  0  0  0  0  0  0  0  0  0
   36.3430   29.5400  -14.9860 O   0  0  0  0  0  0  0  0  0  0  0  0
   38.3360   28.1920  -15.3360 C   0  0  0  0  0  0  0  0  0  0  0  0
   38.8540   28.4380  -13.9900 C   0  0  0  0  0  0  0  0  0  0  0  0
   38.2490   29.1330  -13.1760 O   0  0  0  0  0  0  0  0  0  0  0  0
   40.1490   27.8170  -13.6290 C   0  0  0  0  0  0  0  0  0  0  0  0
   40.6230   28.0440  -12.3510 O   0  0  0  0  0  0  0  0  0  0  0  0
   42.2660   25.0750  -14.7520 C   0  0  0  0  0  0  0  0  0  0  0  0
   43.4850   24.4240  -14.5390 C   0  0  0  0  0  0  0  0  0  0  0  0
   44.5430   25.0620  -13.8660 C   0  0  0  0  0  0  0  0  0  0  0  0
   45.8440   24.3110  -13.6660 C   0  0  0  0  0  0  0  0  0  0  0  0
   46.8100   24.6700  -14.5560 F   0  0  0  0  0  0  0  0  0  0  0  0
   45.6940   22.9630  -13.7960 F   0  0  0  0  0  0  0  0  0  0  0  0
   46.3960   24.5010  -12.4340 F   0  0  0  0  0  0  0  0  0  0  0  0
   47.5653   27.4216  -12.8435 H   0  0  0  0  0  0  0  0  0  0  0  0
   46.8308   26.4246  -14.1447 H   0  0  0  0  0  0  0  0  0  0  0  0
   46.6078   28.2070  -14.1447 H   0  0  0  0  0  0  0  0  0  0  0  0
   45.6839   26.6142  -11.7513 H   0  0  0  0  0  0  0  0  0  0  0  0
   45.0437   28.1594  -12.4551 H   0  0  0  0  0  0  0  0  0  0  0  0
   42.9841   28.0590  -13.2885 H   0  0  0  0  0  0  0  0  0  0  0  0
   39.2188   26.4888  -18.1575 H   0  0  0  0  0  0  0  0  0  0  0  0
   37.0574   27.4689  -18.9354 H   0  0  0  0  0  0  0  0  0  0  0  0
   35.7177   28.9156  -17.4033 H   0  0  0  0  0  0  0  0  0  0  0  0
   36.7300   30.2270  -14.4810 H   0  0  0  0  0  0  0  0  0  0  0  0
   41.3570   28.6110  -12.2170 H   0  0  0  0  0  0  0  0  0  0  0  0
   41.4563   24.5534  -15.2833 H   0  0  0  0  0  0  0  0  0  0  0  0
   43.6191   23.3950  -14.9040 H   0  0  0  0  0  0  0  0  0  0  0  0
  1  2  1  0
  2  3  1  0
  3  4  2  0
  4  5  1  0
  5  6  1  0
  6  7  1  0
  7  8  1  0
  8  9  2  0
  9 10  1  0
 10 11  2  0
 11 12  1  0
 12 13  1  0
 12 14  2  0
 14 15  1  0
 15 16  2  0
 15 17  1  0
 17 18  1  0
  5 19  2  0
 19 20  1  0
 20 21  2  0
 21 22  1  0
 22 23  1  0
 22 24  1  0
 22 25  1  0
 21  3  1  0
 17  6  2  0
 14  8  1  0
  1 26  1  0
  1 27  1  0
  1 28  1  0
  2 29  1  0
  2 30  1  0
  4 31  1  0
  9 32  1  0
 10 33  1  0
 11 34  1  0
 13 35  1  0
 18 36  1  0
 19 37  1  0
 20 38  1  0
M  END
>  <meeko>  (2) 
{"is_sidechain": [false], "free_energy": -6.418, "intermolecular_energy": -8.318, "internal_energy": 0.522}

$$$$
cand_004_out
     RDKit          3D

 38 40  0  0  0  0  0  0  0  0999 V2000
   38.6480   26.6160  -19.2280 C   0  0  0  0  0  0  0  0  0  0  0  0
   37.3710   26.9230  -18.4580 C   0  0  0  0  0  0  0  0  0  0  0  0
   37.6500   27.7000  -17.1900 C   0  0  0  0  0  0  0  0  0  0  0  0
   38.6950   27.2530  -16.3550 C   0  0  0  0  0  0  0  0  0  0  0  0
   39.0070   27.9000  -15.1500 C   0  0  0  0  0  0  0  0  0  0  0  0
   40.1170   27.4440  -14.2870 C   0  0  0  0  0  0  0  0  0  0  0  0
   41.1380   26.8280  -15.0010 O   0  0  0  0  0  0  0  0  0  0  0  0
   42.2320   26.3570  -14.3200 C   0  0  0  0  0  0  0  0  0  0  0  0
   43.2270   25.7320  -15.0750 C   0  0  0  0  0  0  0  0  0  0  0  0
   44.3680   25.2310  -14.4440 C   0  0  0  0  0  0  0  0  0  0  0  0
   44.5140   25.3550  -13.0600 C   0  0  0  0  0  0  0  0  0  0  0  0
   43.5200   25.9780  -12.3110 C   0  0  0  0  0  0  0  0  0  0  0  0
   43.7280   26.0650  -10.9610 O   0  0  0  0  0  0  0  0  0  0  0  0
   42.3790   26.4790  -12.9410 C   0  0  0  0  0  0  0  0  0  0  0  0
   41.3100   27.1400  -12.1910 C   0  0  0  0  0  0  0  0  0  0  0  0
   41.3690   27.2930  -10.9720 O   0  0  0  0  0  0  0  0  0  0  0  0
   40.1390   27.6290  -12.9530 C   0  0  0  0  0  0  0  0  0  0  0  0
   39.1410   28.2650  -12.2380 O   0  0  0  0  0  0  0  0  0  0  0  0
   38.2620   29.0270  -14.7900 C   0  0  0  0  0  0  0  0  0  0  0  0
   37.2210   29.4830  -15.6040 C   0  0  0  0  0  0  0  0  0  0  0  0
   36.8950   28.8290  -16.8050 C   0  0  0  0  0  0  0  0  0  0  0  0
   35.7600   29.3690  -17.6510 C   0  0  0  0  0  0  0  0  0  0  0  0
   35.9850   30.6340  -18.1020 F   0  0  0  0  0  0  0  0  0  0  0  0
   34.5790   29.4150  -16.9720 F   0  0  0  0  0  0  0  0  0  0  0  0
   35.5110   28.6250  -18.7660 F   0  0  0  0  0  0  0  0  0  0  0  0
   39.4655   26.4195  -18.5188 H   0  0  0  0  0  0  0  0  0  0  0  0
   38.4906   25.7301  -19.8608 H   0  0  0  0  0  0  0  0  0  0  0  0
   38.9105   27.4766  -19.8608 H   0  0  0  0  0  0  0  0  0  0  0  0
   36.7030   27.5168  -19.0993 H   0  0  0  0  0  0  0  0  0  0  0  0
   36.9043   25.9674  -18.1767 H   0  0  0  0  0  0  0  0  0  0  0  0
   39.2816   26.3728  -16.6569 H   0  0  0  0  0  0  0  0  0  0  0  0
   43.1123   25.6345  -16.1646 H   0  0  0  0  0  0  0  0  0  0  0  0
   45.1524   24.7383  -15.0373 H   0  0  0  0  0  0  0  0  0  0  0  0
   45.4129   24.9610  -12.5633 H   0  0  0  0  0  0  0  0  0  0  0  0
   44.3170   25.4730  -10.5390 H   0  0  0  0  0  0  0  0  0  0  0  0
   38.5910   27.7720  -11.6620 H   0  0  0  0  0  0  0  0  0  0  0  0
   38.4973   29.5601  -13.8570 H   0  0  0  0  0  0  0  0  0  0  0  0
   36.6463   30.3700  -15.2991 H   0  0  0  0  0  0  0  0  0  0  0  0
  1  2  1  0
  2  3  1  0
  3  4  2  0
  4  5  1  0
  5  6  1  0
  6  7  1  0
  7  8  1  0
  8  9  2  0
  9 10  1  0
 10 11  2  0
 11 12  1  0
 12 13  1  0
 12 14  2  0
 14 15  1  0
 15 16  2  0
 15 17  1  0
 17 18  1  0
  5 19  2  0
 19 20  1  0
 20 21  2  0
 21 22  1  0
 22 23  1  0
 22 24  1  0
 22 25  1  0
 21  3  1  0
 17  6  2  0
 14  8  1  0
  1 26  1  0
  1 27  1  0
  1 28  1  0
  2 29  1  0
  2 30  1  0
  4 31  1  0
  9 32  1  0
 10 33  1  0
 11 34  1  0
 13 35  1  0
 18 36  1  0
 19 37  1  0
 20 38  1  0
M  END
>  <meeko>  (3) 
{"is_sidechain": [false], "free_energy": -6.205, "intermolecular_energy": -7.895, "internal_energy": 0.36}

$$$$
cand_004_out
     RDKit          3D

 38 40  0  0  0  0  0  0  0  0999 V2000
   41.8170   26.7890  -10.9190 C   0  0  0  0  0  0  0  0  0  0  0  0
   43.0130   26.7080  -11.8570 C   0  0  0  0  0  0  0  0  0  0  0  0
   42.5970   26.3880  -13.2760 C   0  0  0  0  0  0  0  0  0  0  0  0
   41.3910   26.9420  -13.7540 C   0  0  0  0  0  0  0  0  0  0  0  0
   40.9180   26.6800  -15.0490 C   0  0  0  0  0  0  0  0  0  0  0  0
   39.6670   27.2790  -15.5560 C   0  0  0  0  0  0  0  0  0  0  0  0
   39.2840   26.7680  -16.7900 O   0  0  0  0  0  0  0  0  0  0  0  0
   38.1360   27.2380  -17.3760 C   0  0  0  0  0  0  0  0  0  0  0  0
   37.7980   26.7090  -18.6220 C   0  0  0  0  0  0  0  0  0  0  0  0
   36.6410   27.1430  -19.2730 C   0  0  0  0  0  0  0  0  0  0  0  0
   35.8240   28.1070  -18.6780 C   0  0  0  0  0  0  0  0  0  0  0  0
   36.1640   28.6340  -17.4350 C   0  0  0  0  0  0  0  0  0  0  0  0
   35.3180   29.5730  -16.9110 O   0  0  0  0  0  0  0  0  0  0  0  0
   37.3210   28.1990  -16.7840 C   0  0  0  0  0  0  0  0  0  0  0  0
   37.7150   28.7270  -15.4780 C   0  0  0  0  0  0  0  0  0  0  0  0
   37.0450   29.5720  -14.8870 O   0  0  0  0  0  0  0  0  0  0  0  0
   38.9640   28.2060  -14.8770 C   0  0  0  0  0  0  0  0  0  0  0  0
   39.3210   28.7010  -13.6360 O   0  0  0  0  0  0  0  0  0  0  0  0
   41.6840   25.8570  -15.8800 C   0  0  0  0  0  0  0  0  0  0  0  0
   42.8810   25.2970  -15.4230 C   0  0  0  0  0  0  0  0  0  0  0  0
   43.3510   25.5450  -14.1210 C   0  0  0  0  0  0  0  0  0  0  0  0
   44.6560   24.9150  -13.6790 C   0  0  0  0  0  0  0  0  0  0  0  0
   44.6310   23.5550  -13.7110 F   0  0  0  0  0  0  0  0  0  0  0  0
   44.9950   25.2560  -12.4040 F   0  0  0  0  0  0  0  0  0  0  0  0
   45.7220   25.2770  -14.4490 F   0  0  0  0  0  0  0  0  0  0  0  0
   42.1665   26.7653   -9.8763 H   0  0  0  0  0  0  0  0  0  0  0  0
   41.2708   27.7262  -11.1014 H   0  0  0  0  0  0  0  0  0  0  0  0
   41.1494   25.9340  -11.1014 H   0  0  0  0  0  0  0  0  0  0  0  0
   43.5368   27.6753  -11.8496 H   0  0  0  0  0  0  0  0  0  0  0  0
   43.6690   25.8988  -11.5036 H   0  0  0  0  0  0  0  0  0  0  0  0
   40.8049   27.5977  -13.0932 H   0  0  0  0  0  0  0  0  0  0  0  0
   38.4422   25.9508  -19.0912 H   0  0  0  0  0  0  0  0  0  0  0  0
   36.3731   26.7254  -20.2548 H   0  0  0  0  0  0  0  0  0  0  0  0
   34.9131   28.4494  -19.1908 H   0  0  0  0  0  0  0  0  0  0  0  0
   35.6280   30.1700  -16.2590 H   0  0  0  0  0  0  0  0  0  0  0  0
   38.6680   28.8240  -12.9750 H   0  0  0  0  0  0  0  0  0  0  0  0
   41.3414   25.6478  -16.9041 H   0  0  0  0  0  0  0  0  0  0  0  0
   43.4657   24.6507  -16.0942 H   0  0  0  0  0  0  0  0  0  0  0  0
  1  2  1  0
  2  3  1  0
  3  4  2  0
  4  5  1  0
  5  6  1  0
  6  7  1  0
  7  8  1  0
  8  9  2  0
  9 10  1  0
 10 11  2  0
 11 12  1  0
 12 13  1  0
 12 14  2  0
 14 15  1  0
 15 16  2  0
 15 17  1  0
 17 18  1  0
  5 19  2  0
 19 20  1  0
 20 21  2  0
 21 22  1  0
 22 23  1  0
 22 24  1  0
 22 25  1  0
 21  3  1  0
 17  6  2  0
 14  8  1  0
  1 26  1  0
  1 27  1  0
  1 28  1  0
  2 29  1  0
  2 30  1  0
  4 31  1  0
  9 32  1  0
 10 33  1  0
 11 34  1  0
 13 35  1  0
 18 36  1  0
 19 37  1  0
 20 38  1  0
M  END
>  <meeko>  (4) 
{"is_sidechain": [false], "free_energy": -5.422, "intermolecular_energy": -7.079, "internal_energy": 0.511}

$$$$
