cand_035_out
     RDKit          3D

 36 38  0  0  0  0  0  0  0  0999 V2000
   46.6410   27.2140  -12.8990 C   0  0  0  0  0  0  0  0  0  0  0  0
   45.3830   27.0340  -12.4800 C   0  0  0  0  0  0  0  0  0  0  0  0
   44.3940   26.3130  -13.2880 C   0  0  0  0  0  0  0  0  0  0  0  0
   43.1650   26.9460  -13.5380 C   0  0  0  0  0  0  0  0  0  0  0  0
   42.1660   26.3240  -14.3020 C   0  0  0  0  0  0  0  0  0  0  0  0
   40.8750   27.0090  -14.5220 C   0  0  0  0  0  0  0  0  0  0  0  0
   40.3560   26.7870  -15.7930 O   0  0  0  0  0  0  0  0  0  0  0  0
   39.1600   27.3660  -16.1310 C   0  0  0  0  0  0  0  0  0  0  0  0
   38.6830   27.1280  -17.4210 C   0  0  0  0  0  0  0  0  0  0  0  0
   37.4690   27.6860  -17.8290 C   0  0  0  0  0  0  0  0  0  0  0  0
   36.7330   28.4810  -16.9470 C   0  0  0  0  0  0  0  0  0  0  0  0
   37.2110   28.7160  -15.6600 C   0  0  0  0  0  0  0  0  0  0  0  0
   36.4390   29.5010  -14.8490 O   0  0  0  0  0  0  0  0  0  0  0  0
   38.4260   28.1570  -15.2530 C   0  0  0  0  0  0  0  0  0  0  0  0
   38.9630   28.3800  -13.9100 C   0  0  0  0  0  0  0  0  0  0  0  0
   38.3710   29.0590  -13.0750 O   0  0  0  0  0  0  0  0  0  0  0  0
   40.2620   27.7490  -13.5800 C   0  0  0  0  0  0  0  0  0  0  0  0
   40.7550   27.9520  -12.3050 O   0  0  0  0  0  0  0  0  0  0  0  0
   42.4140   25.0410  -14.8010 C   0  0  0  0  0  0  0  0  0  0  0  0
   43.6330   24.4020  -14.5580 C   0  0  0  0  0  0  0  0  0  0  0  0
   44.6360   25.0280  -13.8030 C   0  0  0  0  0  0  0  0  0  0  0  0
   45.9400   24.3110  -13.5580 C   0  0  0  0  0  0  0  0  0  0  0  0
   46.8650   24.5160  -14.5410 F   0  0  0  0  0  0  0  0  0  0  0  0
   47.3581   27.7597  -12.2681 H   0  0  0  0  0  0  0  0  0  0  0  0
   46.9581   26.8163  -13.8743 H   0  0  0  0  0  0  0  0  0  0  0  0
   45.0822   27.4381  -11.5021 H   0  0  0  0  0  0  0  0  0  0  0  0
   42.9822   27.9496  -13.1264 H   0  0  0  0  0  0  0  0  0  0  0  0
   39.2623   26.5018  -18.1155 H   0  0  0  0  0  0  0  0  0  0  0  0
   37.0923   27.4993  -18.8455 H   0  0  0  0  0  0  0  0  0  0  0  0
   35.7773   28.9208  -17.2685 H   0  0  0  0  0  0  0  0  0  0  0  0
   36.5720   29.4920  -13.9210 H   0  0  0  0  0  0  0  0  0  0  0  0
   41.3200   27.3140  -11.9130 H   0  0  0  0  0  0  0  0  0  0  0  0
   41.6403   24.5288  -15.3918 H   0  0  0  0  0  0  0  0  0  0  0  0
   43.8083   23.3949  -14.9641 H   0  0  0  0  0  0  0  0  0  0  0  0
   46.3594   24.6661  -12.6051 H   0  0  0  0  0  0  0  0  0  0  0  0
   45.7194   23.2335  -13.5396 H   0  0  0  0  0  0  0  0  0  0  0  0
  1  2  2  0
  2  3  1  0
  3  4  2  0
  4  5  1  0
  5  6  1  0
  6  7  1  0
  7  8  1  0
  8  9  2  0
  9 10  1  0
 10 11  2  0
 11 12  1  0
 12 13  1  0
 12 14  2  0
 14 15  1  0
 15 16  2  0
 15 17  1  0
 17 18  1  0
  5 19  2  0
 19 20  1  0
 20 21  2  0
 21 22  1  0
 22 23  1  0
 21  3  1  0
 17  6  2  0
 14  8  1  0
  1 24  1  0
  1 25  1  0
  2 26  1  0
  4 27  1  0
  9 28  1  0
 10 29  1  0
 11 30  1  0
 13 31  1  0
 18 32  1  0
 19 33  1  0
 20 34  1  0
 22 35  1  0
 22 36  1  0
M  END
>  <meeko>  (1) 
{"is_sidechain": [false], "free_energy": -7.372, "intermolecular_energy": -9.096, "internal_energy": 0.35}

$$$$
cand_035_out
     RDKit          3D

 36 38  0  0  0  0  0  0  0  0999 V2000
   46.0690   27.3450  -12.7270 C   0  0  0  0  0  0  0  0  0  0  0  0
   44.7310   27.3340  -12.7090 C   0  0  0  0  0  0  0  0  0  0  0  0
   43.9530   26.4080  -13.5380 C   0  0  0  0  0  0  0  0  0  0  0  0
   42.7840   26.8960  -14.1460 C   0  0  0  0  0  0  0  0  0  0  0  0
   41.9840   26.0730  -14.9540 C   0  0  0  0  0  0  0  0  0  0  0  0
   40.7470   26.6130  -15.5560 C   0  0  0  0  0  0  0  0  0  0  0  0
   40.0360   27.4330  -14.6860 O   0  0  0  0  0  0  0  0  0  0  0  0
   38.8660   28.0010  -15.1180 C   0  0  0  0  0  0  0  0  0  0  0  0
   38.1780   28.8050  -14.2090 C   0  0  0  0  0  0  0  0  0  0  0  0
   36.9790   29.4150  -14.5860 C   0  0  0  0  0  0  0  0  0  0  0  0
   36.4700   29.2220  -15.8710 C   0  0  0  0  0  0  0  0  0  0  0  0
   37.1580   28.4190  -16.7770 C   0  0  0  0  0  0  0  0  0  0  0  0
   36.6030   28.2730  -18.0190 O   0  0  0  0  0  0  0  0  0  0  0  0
   38.3570   27.8080  -16.3990 C   0  0  0  0  0  0  0  0  0  0  0  0
   39.1110   26.9570  -17.3210 C   0  0  0  0  0  0  0  0  0  0  0  0
   38.7330   26.7450  -18.4700 O   0  0  0  0  0  0  0  0  0  0  0  0
   40.3670   26.3510  -16.8200 C   0  0  0  0  0  0  0  0  0  0  0  0
   41.0800   25.5610  -17.7010 O   0  0  0  0  0  0  0  0  0  0  0  0
   42.3680   24.7400  -15.1300 C   0  0  0  0  0  0  0  0  0  0  0  0
   43.5290   24.2440  -14.5290 C   0  0  0  0  0  0  0  0  0  0  0  0
   44.3350   25.0690  -13.7300 C   0  0  0  0  0  0  0  0  0  0  0  0
   45.5800   24.5030  -13.0950 C   0  0  0  0  0  0  0  0  0  0  0  0
   46.5960   24.2960  -13.9840 F   0  0  0  0  0  0  0  0  0  0  0  0
   46.6218   28.0531  -12.0922 H   0  0  0  0  0  0  0  0  0  0  0  0
   46.6161   26.6459  -13.3766 H   0  0  0  0  0  0  0  0  0  0  0  0
   44.1996   28.0398  -12.0536 H   0  0  0  0  0  0  0  0  0  0  0  0
   42.4900   27.9438  -13.9856 H   0  0  0  0  0  0  0  0  0  0  0  0
   38.5792   28.9585  -13.1963 H   0  0  0  0  0  0  0  0  0  0  0  0
   36.4356   30.0481  -13.8692 H   0  0  0  0  0  0  0  0  0  0  0  0
   35.5266   29.7036  -16.1678 H   0  0  0  0  0  0  0  0  0  0  0  0
   36.2480   27.4460  -18.2810 H   0  0  0  0  0  0  0  0  0  0  0  0
   41.6560   24.8960  -17.3750 H   0  0  0  0  0  0  0  0  0  0  0  0
   41.7492   24.0735  -15.7488 H   0  0  0  0  0  0  0  0  0  0  0  0
   43.8142   23.1931  -14.6847 H   0  0  0  0  0  0  0  0  0  0  0  0
   45.9289   25.2060  -12.3243 H   0  0  0  0  0  0  0  0  0  0  0  0
   45.3127   23.5229  -12.6732 H   0  0  0  0  0  0  0  0  0  0  0  0
  1  2  2  0
  2  3  1  0
  3  4  2  0
  4  5  1  0
  5  6  1  0
  6  7  1  0
  7  8  1  0
  8  9  2  0
  9 10  1  0
 10 11  2  0
 11 12  1  0
 12 13  1  0
 12 14  2  0
 14 15  1  0
 15 16  2  0
 15 17  1  0
 17 18  1  0
  5 19  2  0
 19 20  1  0
 20 21  2  0
 21 22  1  0
 22 23  1  0
 21  3  1  0
 17  6  2  0
 14  8  1  0
  1 24  1  0
  1 25  1  0
  2 26  1  0
  4 27  1  0
  9 28  1  0
 10 29  1  0
 11 30  1  0
 13 31  1  0
 18 32  1  0
 19 33  1  0
 20 34  1  0
 22 35  1  0
 22 36  1  0
M  END
>  <meeko>  (2) 
{"is_sidechain": [false], "free_energy": -6.963, "intermolecular_energy": -8.639, "internal_energy": 0.398}

$$$$
cand_035_out
     RDKit          3D

 36 38  0  0  0  0  0  0  0  0999 V2000
   38.2420   26.6140  -18.9920 C   0  0  0  0  0  0  0  0  0  0  0  0
   37.2840   26.9910  -18.1380 C   0  0  0  0  0  0  0  0  0  0  0  0
   37.5890   27.7410  -16.9150 C   0  0  0  0  0  0  0  0  0  0  0  0
   38.6860   27.3190  -16.1440 C   0  0  0  0  0  0  0  0  0  0  0  0
   39.0430   27.9820  -14.9600 C   0  0  0  0  0  0  0  0  0  0  0  0
   40.1860   27.4950  -14.1600 C   0  0  0  0  0  0  0  0  0  0  0  0
   41.1660   26.8840  -14.9350 O   0  0  0  0  0  0  0  0  0  0  0  0
   42.2840   26.3850  -14.3180 C   0  0  0  0  0  0  0  0  0  0  0  0
   43.2350   25.7680  -15.1310 C   0  0  0  0  0  0  0  0  0  0  0  0
   44.3980   25.2400  -14.5650 C   0  0  0  0  0  0  0  0  0  0  0  0
   44.6090   25.3300  -13.1880 C   0  0  0  0  0  0  0  0  0  0  0  0
   43.6580   25.9460  -12.3790 C   0  0  0  0  0  0  0  0  0  0  0  0
   43.9300   26.0000  -11.0390 O   0  0  0  0  0  0  0  0  0  0  0  0
   42.4950   26.4740  -12.9450 C   0  0  0  0  0  0  0  0  0  0  0  0
   41.4710   27.1290  -12.1290 C   0  0  0  0  0  0  0  0  0  0  0  0
   41.5880   27.2540  -10.9130 O   0  0  0  0  0  0  0  0  0  0  0  0
   40.2710   27.6490  -12.8260 C   0  0  0  0  0  0  0  0  0  0  0  0
   39.3160   28.2790  -12.0510 O   0  0  0  0  0  0  0  0  0  0  0  0
   38.2680   29.0730  -14.5500 C   0  0  0  0  0  0  0  0  0  0  0  0
   37.1760   29.5000  -15.3090 C   0  0  0  0  0  0  0  0  0  0  0  0
   36.8240   28.8440  -16.4980 C   0  0  0  0  0  0  0  0  0  0  0  0
   35.6390   29.3290  -17.2940 C   0  0  0  0  0  0  0  0  0  0  0  0
   35.8980   30.4550  -18.0230 F   0  0  0  0  0  0  0  0  0  0  0  0
   37.9790   26.0523  -19.9005 H   0  0  0  0  0  0  0  0  0  0  0  0
   39.2928   26.8657  -18.7858 H   0  0  0  0  0  0  0  0  0  0  0  0
   36.2382   26.7313  -18.3591 H   0  0  0  0  0  0  0  0  0  0  0  0
   39.2762   26.4519  -16.4754 H   0  0  0  0  0  0  0  0  0  0  0  0
   43.0694   25.6973  -16.2162 H   0  0  0  0  0  0  0  0  0  0  0  0
   45.1483   24.7528  -15.2051 H   0  0  0  0  0  0  0  0  0  0  0  0
   45.5252   24.9149  -12.7428 H   0  0  0  0  0  0  0  0  0  0  0  0
   44.2800   26.7830  -10.6620 H   0  0  0  0  0  0  0  0  0  0  0  0
   39.3980   29.1930  -11.8580 H   0  0  0  0  0  0  0  0  0  0  0  0
   38.5220   29.6005  -13.6188 H   0  0  0  0  0  0  0  0  0  0  0  0
   36.5838   30.3626  -14.9697 H   0  0  0  0  0  0  0  0  0  0  0  0
   35.3324   28.5296  -17.9846 H   0  0  0  0  0  0  0  0  0  0  0  0
   34.8472   29.5838  -16.5742 H   0  0  0  0  0  0  0  0  0  0  0  0
  1  2  2  0
  2  3  1  0
  3  4  2  0
  4  5  1  0
  5  6  1  0
  6  7  1  0
  7  8  1  0
  8  9  2  0
  9 10  1  0
 10 11  2  0
 11 12  1  0
 12 13  1  0
 12 14  2  0
 14 15  1  0
 15 16  2  0
 15 17  1  0
 17 18  1  0
  5 19  2  0
 19 20  1  0
 20 21  2  0
 21 22  1  0
 22 23  1  0
 21  3  1  0
 17  6  2  0
 14  8  1  0
  1 24  1  0
  1 25  1  0
  2 26  1  0
  4 27  1  0
  9 28  1  0
 10 29  1  0
 11 30  1  0
 13 31  1  0
 18 32  1  0
 19 33  1  0
 20 34  1  0
 22 35  1  0
 22 36  1  0
M  END
>  <meeko>  (3) 
{"is_sidechain": [false], "free_energy": -6.533, "intermolecular_energy": -7.634, "internal_energy": -0.077}

$$$$
cand_035_out
     RDKit          3D

 36 38  0  0  0  0  0  0  0  0999 V2000
   36.3930   29.5480  -14.5150 C   0  0  0  0  0  0  0  0  0  0  0  0
   36.5750   29.1870  -15.7910 C   0  0  0  0  0  0  0  0  0  0  0  0
   37.5980   28.2120  -16.1810 C   0  0  0  0  0  0  0  0  0  0  0  0
   38.6290   27.9400  -15.2650 C   0  0  0  0  0  0  0  0  0  0  0  0
   39.6460   27.0210  -15.5630 C   0  0  0  0  0  0  0  0  0  0  0  0
   40.7290   26.7800  -14.5870 C   0  0  0  0  0  0  0  0  0  0  0  0
   41.8600   26.2150  -15.1650 O   0  0  0  0  0  0  0  0  0  0  0  0
   42.9430   25.9390  -14.3700 C   0  0  0  0  0  0  0  0  0  0  0  0
   44.0530   25.3610  -14.9880 C   0  0  0  0  0  0  0  0  0  0  0  0
   45.1890   25.0560  -14.2360 C   0  0  0  0  0  0  0  0  0  0  0  0
   45.2160   25.3300  -12.8670 C   0  0  0  0  0  0  0  0  0  0  0  0
   44.1080   25.9070  -12.2520 C   0  0  0  0  0  0  0  0  0  0  0  0
   44.2030   26.1490  -10.9090 O   0  0  0  0  0  0  0  0  0  0  0  0
   42.9700   26.2120  -13.0050 C   0  0  0  0  0  0  0  0  0  0  0  0
   41.7850   26.8190  -12.3980 C   0  0  0  0  0  0  0  0  0  0  0  0
   41.7350   27.0960  -11.2030 O   0  0  0  0  0  0  0  0  0  0  0  0
   40.6300   27.0960  -13.2830 C   0  0  0  0  0  0  0  0  0  0  0  0
   39.5200   27.6830  -12.7040 O   0  0  0  0  0  0  0  0  0  0  0  0
   39.6220   26.3850  -16.8090 C   0  0  0  0  0  0  0  0  0  0  0  0
   38.6020   26.6480  -17.7270 C   0  0  0  0  0  0  0  0  0  0  0  0
   37.5790   27.5600  -17.4260 C   0  0  0  0  0  0  0  0  0  0  0  0
   36.4940   27.8220  -18.4390 C   0  0  0  0  0  0  0  0  0  0  0  0
   36.4130   26.8640  -19.4090 F   0  0  0  0  0  0  0  0  0  0  0  0
   35.6161   30.2826  -14.2567 H   0  0  0  0  0  0  0  0  0  0  0  0
   37.0204   29.1101  -13.7247 H   0  0  0  0  0  0  0  0  0  0  0  0
   35.9390   29.6345  -16.5690 H   0  0  0  0  0  0  0  0  0  0  0  0
   38.6385   28.4583  -14.2948 H   0  0  0  0  0  0  0  0  0  0  0  0
   44.0327   25.1460  -16.0666 H   0  0  0  0  0  0  0  0  0  0  0  0
   46.0636   24.5994  -14.7223 H   0  0  0  0  0  0  0  0  0  0  0  0
   46.1116   25.0903  -12.2751 H   0  0  0  0  0  0  0  0  0  0  0  0
   43.8540   26.9410  -10.5490 H   0  0  0  0  0  0  0  0  0  0  0  0
   38.9330   28.1930  -13.2270 H   0  0  0  0  0  0  0  0  0  0  0  0
   40.4158   25.6692  -17.0690 H   0  0  0  0  0  0  0  0  0  0  0  0
   38.6010   26.1330  -18.6990 H   0  0  0  0  0  0  0  0  0  0  0  0
   35.5293   27.8671  -17.9125 H   0  0  0  0  0  0  0  0  0  0  0  0
   36.7401   28.7701  -18.9396 H   0  0  0  0  0  0  0  0  0  0  0  0
  1  2  2  0
  2  3  1  0
  3  4  2  0
  4  5  1  0
  5  6  1  0
  6  7  1  0
  7  8  1  0
  8  9  2  0
  9 10  1  0
 10 11  2  0
 11 12  1  0
 12 13  1  0
 12 14  2  0
 14 15  1  0
 15 16  2  0
 15 17  1  0
 17 18  1  0
  5 19  2  0
 19 20  1  0
 20 21  2  0
 21 22  1  0
 22 23  1  0
 21  3  1  0
 17  6  2  0
 14  8  1  0
  1 24  1  0
  1 25  1  0
  2 26  1  0
  4 27  1  0
  9 28  1  0
 10 29  1  0
 11 30  1  0
 13 31  1  0
 18 32  1  0
 19 33  1  0
 20 34  1  0
 22 35  1  0
 22 36  1  0
M  END
>  <meeko>  (4) 
{"is_sidechain": [false], "free_energy": -6.317, "intermolecular_energy": -7.542, "internal_energy": 0.099}

$$$$
cand_035_out
     RDKit          3D

 36 38  0  0  0  0  0  0  0  0999 V2000
   45.4550   24.2980  -13.8760 C   0  0  0  0  0  0  0  0  0  0  0  0
   44.7080   25.1210  -14.6210 C   0  0  0  0  0  0  0  0  0  0  0  0
   43.5660   25.8490  -14.0610 C   0  0  0  0  0  0  0  0  0  0  0  0
   42.4690   26.0970  -14.9030 C   0  0  0  0  0  0  0  0  0  0  0  0
   41.3370   26.7880  -14.4440 C   0  0  0  0  0  0  0  0  0  0  0  0
   40.2140   27.0540  -15.3660 C   0  0  0  0  0  0  0  0  0  0  0  0
   39.2690   27.9220  -14.8290 O   0  0  0  0  0  0  0  0  0  0  0  0
   38.1710   28.2550  -15.5800 C   0  0  0  0  0  0  0  0  0  0  0  0
   37.2420   29.1170  -14.9980 C   0  0  0  0  0  0  0  0  0  0  0  0
   36.1020   29.4970  -15.7100 C   0  0  0  0  0  0  0  0  0  0  0  0
   35.8930   29.0160  -17.0040 C   0  0  0  0  0  0  0  0  0  0  0  0
   36.8220   28.1550  -17.5830 C   0  0  0  0  0  0  0  0  0  0  0  0
   36.5550   27.7230  -18.8530 O   0  0  0  0  0  0  0  0  0  0  0  0
   37.9620   27.7750  -16.8700 C   0  0  0  0  0  0  0  0  0  0  0  0
   38.9630   26.8730  -17.4420 C   0  0  0  0  0  0  0  0  0  0  0  0
   38.8530   26.4140  -18.5760 O   0  0  0  0  0  0  0  0  0  0  0  0
   40.1310   26.5260  -16.6000 C   0  0  0  0  0  0  0  0  0  0  0  0
   41.0790   25.6850  -17.1540 O   0  0  0  0  0  0  0  0  0  0  0  0
   41.3290   27.2450  -13.1210 C   0  0  0  0  0  0  0  0  0  0  0  0
   42.4150   27.0040  -12.2750 C   0  0  0  0  0  0  0  0  0  0  0  0
   43.5420   26.3040  -12.7310 C   0  0  0  0  0  0  0  0  0  0  0  0
   44.6980   26.0620  -11.7930 C   0  0  0  0  0  0  0  0  0  0  0  0
   45.7630   26.8860  -12.0190 F   0  0  0  0  0  0  0  0  0  0  0  0
   46.3055   23.7667  -14.3280 H   0  0  0  0  0  0  0  0  0  0  0  0
   45.2186   24.1527  -12.8116 H   0  0  0  0  0  0  0  0  0  0  0  0
   44.9581   25.2549  -15.6838 H   0  0  0  0  0  0  0  0  0  0  0  0
   42.4980   25.7421  -15.9438 H   0  0  0  0  0  0  0  0  0  0  0  0
   37.4069   29.4973  -13.9791 H   0  0  0  0  0  0  0  0  0  0  0  0
   35.3682   30.1758  -15.2509 H   0  0  0  0  0  0  0  0  0  0  0  0
   34.9960   29.3166  -17.5653 H   0  0  0  0  0  0  0  0  0  0  0  0
   35.8590   28.1130  -19.3450 H   0  0  0  0  0  0  0  0  0  0  0  0
   40.8180   25.0190  -17.7600 H   0  0  0  0  0  0  0  0  0  0  0  0
   40.4579   27.8002  -12.7428 H   0  0  0  0  0  0  0  0  0  0  0  0
   42.3857   27.3681  -11.2374 H   0  0  0  0  0  0  0  0  0  0  0  0
   44.3487   26.2190  -10.7618 H   0  0  0  0  0  0  0  0  0  0  0  0
   45.0435   25.0317  -11.9635 H   0  0  0  0  0  0  0  0  0  0  0  0
  1  2  2  0
  2  3  1  0
  3  4  2  0
  4  5  1  0
  5  6  1  0
  6  7  1  0
  7  8  1  0
  8  9  2  0
  9 10  1  0
 10 11  2  0
 11 12  1  0
 12 13  1  0
 12 14  2  0
 14 15  1  0
 15 16  2  0
 15 17  1  0
 17 18  1  0
  5 19  2  0
 19 20  1  0
 20 21  2  0
 21 22  1  0
 22 23  1  0
 21  3  1  0
 17  6  2  0
 14  8  1  0
  1 24  1  0
  1 25  1  0
  2 26  1  0
  4 27  1  0
  9 28  1  0
 10 29  1  0
 11 30  1  0
 13 31  1  0
 18 32  1  0
 19 33  1  0
 20 34  1  0
 22 35  1  0
 22 36  1  0
M  END
>  <meeko>  (5) 
{"is_sidechain": [false], "free_energy": -5.924, "intermolecular_energy": -7.894, "internal_energy": 0.935}

$$$$
cand_035_out
     RDKit          3D

 36 38  0  0  0  0  0  0  0  0999 V2000
   45.2860   24.4040  -14.1720 C   0  0  0  0  0  0  0  0  0  0  0  0
   44.3310   25.1440  -14.7470 C   0  0  0  0  0  0  0  0  0  0  0  0
   43.3670   25.9140  -13.9550 C   0  0  0  0  0  0  0  0  0  0  0  0
   42.1850   26.3360  -14.5880 C   0  0  0  0  0  0  0  0  0  0  0  0
   41.2130   27.0770  -13.9000 C   0  0  0  0  0  0  0  0  0  0  0  0
   39.9950   27.5270  -14.6060 C   0  0  0  0  0  0  0  0  0  0  0  0
   39.8260   26.9080  -15.8390 O   0  0  0  0  0  0  0  0  0  0  0  0
   38.7340   27.2350  -16.6010 C   0  0  0  0  0  0  0  0  0  0  0  0
   38.6110   26.6000  -17.8380 C   0  0  0  0  0  0  0  0  0  0  0  0
   37.5200   26.8860  -18.6620 C   0  0  0  0  0  0  0  0  0  0  0  0
   36.5530   27.8060  -18.2500 C   0  0  0  0  0  0  0  0  0  0  0  0
   36.6790   28.4380  -17.0150 C   0  0  0  0  0  0  0  0  0  0  0  0
   35.6960   29.3260  -16.6740 O   0  0  0  0  0  0  0  0  0  0  0  0
   37.7710   28.1520  -16.1910 C   0  0  0  0  0  0  0  0  0  0  0  0
   37.9390   28.7930  -14.8860 C   0  0  0  0  0  0  0  0  0  0  0  0
   37.1280   29.6070  -14.4500 O   0  0  0  0  0  0  0  0  0  0  0  0
   39.1350   28.4260  -14.0930 C   0  0  0  0  0  0  0  0  0  0  0  0
   39.2780   29.0250  -12.8560 O   0  0  0  0  0  0  0  0  0  0  0  0
   41.4520   27.4060  -12.5610 C   0  0  0  0  0  0  0  0  0  0  0  0
   42.6240   26.9910  -11.9220 C   0  0  0  0  0  0  0  0  0  0  0  0
   43.5920   26.2410  -12.6060 C   0  0  0  0  0  0  0  0  0  0  0  0
   44.8450   25.8110  -11.8880 C   0  0  0  0  0  0  0  0  0  0  0  0
   45.9420   26.5560  -12.2150 F   0  0  0  0  0  0  0  0  0  0  0  0
   45.9936   23.8381  -14.7957 H   0  0  0  0  0  0  0  0  0  0  0  0
   45.3635   24.3615  -13.0756 H   0  0  0  0  0  0  0  0  0  0  0  0
   44.2674   25.1755  -15.8447 H   0  0  0  0  0  0  0  0  0  0  0  0
   42.0189   26.0798  -15.6448 H   0  0  0  0  0  0  0  0  0  0  0  0
   39.3721   25.8755  -18.1634 H   0  0  0  0  0  0  0  0  0  0  0  0
   37.4222   26.3860  -19.6369 H   0  0  0  0  0  0  0  0  0  0  0  0
   35.6940   28.0309  -18.8993 H   0  0  0  0  0  0  0  0  0  0  0  0
   35.1410   29.1520  -15.9390 H   0  0  0  0  0  0  0  0  0  0  0  0
   39.5490   28.5160  -12.1170 H   0  0  0  0  0  0  0  0  0  0  0  0
   40.7096   27.9976  -12.0053 H   0  0  0  0  0  0  0  0  0  0  0  0
   42.7895   27.2565  -10.8674 H   0  0  0  0  0  0  0  0  0  0  0  0
   44.6738   25.8997  -10.8050 H   0  0  0  0  0  0  0  0  0  0  0  0
   45.0541   24.7751  -12.1932 H   0  0  0  0  0  0  0  0  0  0  0  0
  1  2  2  0
  2  3  1  0
  3  4  2  0
  4  5  1  0
  5  6  1  0
  6  7  1  0
  7  8  1  0
  8  9  2  0
  9 10  1  0
 10 11  2  0
 11 12  1  0
 12 13  1  0
 12 14  2  0
 14 15  1  0
 15 16  2  0
 15 17  1  0
 17 18  1  0
  5 19  2  0
 19 20  1  0
 20 21  2  0
 21 22  1  0
 22 23  1  0
 21  3  1  0
 17  6  2  0
 14  8  1  0
  1 24  1  0
  1 25  1  0
  2 26  1  0
  4 27  1  0
  9 28  1  0
 10 29  1  0
 11 30  1  0
 13 31  1  0
 18 32  1  0
 19 33  1  0
 20 34  1  0
 22 35  1  0
 22 36  1  0
M  END
>  <meeko>  (6) 
{"is_sidechain": [false], "free_energy": -5.765, "intermolecular_energy": -7.941, "internal_energy": 1.178}

$$$$
cand_035_out
     RDKit          3D

 36 38  0  0  0  0  0  0  0  0999 V2000
   48.7460   27.3090  -13.9950 C   0  0  0  0  0  0  0  0  0  0  0  0
   47.6980   26.9800  -14.7580 C   0  0  0  0  0  0  0  0  0  0  0  0
   46.6400   26.0860  -14.2770 C   0  0  0  0  0  0  0  0  0  0  0  0
   45.3070   26.4930  -14.4520 C   0  0  0  0  0  0  0  0  0  0  0  0
   44.2370   25.6940  -14.0190 C   0  0  0  0  0  0  0  0  0  0  0  0
   42.8480   26.1660  -14.1960 C   0  0  0  0  0  0  0  0  0  0  0  0
   42.3490   25.9120  -15.4680 O   0  0  0  0  0  0  0  0  0  0  0  0
   41.0680   26.2990  -15.7680 C   0  0  0  0  0  0  0  0  0  0  0  0
   40.6130   26.0370  -17.0610 C   0  0  0  0  0  0  0  0  0  0  0  0
   39.3170   26.4040  -17.4300 C   0  0  0  0  0  0  0  0  0  0  0  0
   38.4780   27.0330  -16.5080 C   0  0  0  0  0  0  0  0  0  0  0  0
   38.9350   27.2940  -15.2190 C   0  0  0  0  0  0  0  0  0  0  0  0
   38.0600   27.9110  -14.3670 O   0  0  0  0  0  0  0  0  0  0  0  0
   40.2320   26.9260  -14.8490 C   0  0  0  0  0  0  0  0  0  0  0  0
   40.7510   27.1820  -13.5050 C   0  0  0  0  0  0  0  0  0  0  0  0
   40.0710   27.7230  -12.6360 O   0  0  0  0  0  0  0  0  0  0  0  0
   42.1410   26.7600  -13.2170 C   0  0  0  0  0  0  0  0  0  0  0  0
   42.6180   26.9910  -11.9400 O   0  0  0  0  0  0  0  0  0  0  0  0
   44.5280   24.4800  -13.3890 C   0  0  0  0  0  0  0  0  0  0  0  0
   45.8510   24.0660  -13.2090 C   0  0  0  0  0  0  0  0  0  0  0  0
   46.9200   24.8590  -13.6510 C   0  0  0  0  0  0  0  0  0  0  0  0
   48.3360   24.3840  -13.4410 C   0  0  0  0  0  0  0  0  0  0  0  0
   48.4560   23.0230  -13.4290 F   0  0  0  0  0  0  0  0  0  0  0  0
   49.5221   27.9826  -14.3874 H   0  0  0  0  0  0  0  0  0  0  0  0
   48.8318   26.9060  -12.9751 H   0  0  0  0  0  0  0  0  0  0  0  0
   47.6278   27.3919  -15.7756 H   0  0  0  0  0  0  0  0  0  0  0  0
   45.0973   27.4572  -14.9381 H   0  0  0  0  0  0  0  0  0  0  0  0
   41.2738   25.5424  -17.7881 H   0  0  0  0  0  0  0  0  0  0  0  0
   38.9566   26.1972  -18.4485 H   0  0  0  0  0  0  0  0  0  0  0  0
   37.4575   27.3219  -16.7996 H   0  0  0  0  0  0  0  0  0  0  0  0
   38.2280   27.9150  -13.4450 H   0  0  0  0  0  0  0  0  0  0  0  0
   42.9460   27.8380  -11.7090 H   0  0  0  0  0  0  0  0  0  0  0  0
   43.7059   23.8430  -13.0307 H   0  0  0  0  0  0  0  0  0  0  0  0
   46.0564   23.1054  -12.7140 H   0  0  0  0  0  0  0  0  0  0  0  0
   48.9613   24.7819  -14.2538 H   0  0  0  0  0  0  0  0  0  0  0  0
   48.6570   24.7468  -12.4534 H   0  0  0  0  0  0  0  0  0  0  0  0
  1  2  2  0
  2  3  1  0
  3  4  2  0
  4  5  1  0
  5  6  1  0
  6  7  1  0
  7  8  1  0
  8  9  2  0
  9 10  1  0
 10 11  2  0
 11 12  1  0
 12 13  1  0
 12 14  2  0
 14 15  1  0
 15 16  2  0
 15 17  1  0
 17 18  1  0
  5 19  2  0
 19 20  1  0
 20 21  2  0
 21 22  1  0
 22 23  1  0
 21  3  1  0
 17  6  2  0
 14  8  1  0
  1 24  1  0
  1 25  1  0
  2 26  1  0
  4 27  1  0
  9 28  1  0
 10 29  1  0
 11 30  1  0
 13 31  1  0
 18 32  1  0
 19 33  1  0
 20 34  1  0
 22 35  1  0
 22 36  1  0
M  END
>  <meeko>  (7) 
{"is_sidechain": [false], "free_energy": -4.901, "intermolecular_energy": -5.712, "internal_energy": 0.016}

$$$$
cand_035_out
     RDKit          3D

 36 38  0  0  0  0  0  0  0  0999 V2000
   48.2440   26.8330  -14.8880 C   0  0  0  0  0  0  0  0  0  0  0  0
   47.2050   27.0400  -14.0710 C   0  0  0  0  0  0  0  0  0  0  0  0
   46.0970   26.0850  -13.9700 C   0  0  0  0  0  0  0  0  0  0  0  0
   44.8120   26.5330  -14.3210 C   0  0  0  0  0  0  0  0  0  0  0  0
   43.6980   25.6810  -14.2520 C   0  0  0  0  0  0  0  0  0  0  0  0
   42.3570   26.1940  -14.6020 C   0  0  0  0  0  0  0  0  0  0  0  0
   41.7950   26.9670  -13.5930 O   0  0  0  0  0  0  0  0  0  0  0  0
   40.5490   27.5070  -13.7870 C   0  0  0  0  0  0  0  0  0  0  0  0
   40.0160   28.2650  -12.7440 C   0  0  0  0  0  0  0  0  0  0  0  0
   38.7520   28.8440  -12.8780 C   0  0  0  0  0  0  0  0  0  0  0  0
   38.0220   28.6650  -14.0540 C   0  0  0  0  0  0  0  0  0  0  0  0
   38.5560   27.9080  -15.0940 C   0  0  0  0  0  0  0  0  0  0  0  0
   37.7870   27.7740  -16.2180 O   0  0  0  0  0  0  0  0  0  0  0  0
   39.8210   27.3280  -14.9600 C   0  0  0  0  0  0  0  0  0  0  0  0
   40.4170   26.5260  -16.0280 C   0  0  0  0  0  0  0  0  0  0  0  0
   39.8410   26.3300  -17.0950 O   0  0  0  0  0  0  0  0  0  0  0  0
   41.7600   25.9500  -15.7830 C   0  0  0  0  0  0  0  0  0  0  0  0
   42.3220   25.2060  -16.8030 O   0  0  0  0  0  0  0  0  0  0  0  0
   43.8930   24.3690  -13.8070 C   0  0  0  0  0  0  0  0  0  0  0  0
   45.1670   23.9140  -13.4560 C   0  0  0  0  0  0  0  0  0  0  0  0
   46.2810   24.7620  -13.5350 C   0  0  0  0  0  0  0  0  0  0  0  0
   47.6420   24.2400  -13.1470 C   0  0  0  0  0  0  0  0  0  0  0  0
   47.7270   23.8650  -11.8370 F   0  0  0  0  0  0  0  0  0  0  0  0
   49.0587   27.5703  -14.9393 H   0  0  0  0  0  0  0  0  0  0  0  0
   48.2835   25.9255  -15.5084 H   0  0  0  0  0  0  0  0  0  0  0  0
   47.1813   27.9527  -13.4575 H   0  0  0  0  0  0  0  0  0  0  0  0
   44.6762   27.5718  -14.6565 H   0  0  0  0  0  0  0  0  0  0  0  0
   40.5908   28.4065  -11.8169 H   0  0  0  0  0  0  0  0  0  0  0  0
   38.3315   29.4417  -12.0558 H   0  0  0  0  0  0  0  0  0  0  0  0
   37.0265   29.1210  -14.1593 H   0  0  0  0  0  0  0  0  0  0  0  0
   38.0640   27.2080  -16.9120 H   0  0  0  0  0  0  0  0  0  0  0  0
   42.5350   24.3040  -16.6630 H   0  0  0  0  0  0  0  0  0  0  0  0
   43.0330   23.6872  -13.7325 H   0  0  0  0  0  0  0  0  0  0  0  0
   45.2976   22.8770  -13.1132 H   0  0  0  0  0  0  0  0  0  0  0  0
   47.8723   23.3668  -13.7750 H   0  0  0  0  0  0  0  0  0  0  0  0
   48.3587   25.0610  -13.2963 H   0  0  0  0  0  0  0  0  0  0  0  0
  1  2  2  0
  2  3  1  0
  3  4  2  0
  4  5  1  0
  5  6  1  0
  6  7  1  0
  7  8  1  0
  8  9  2  0
  9 10  1  0
 10 11  2  0
 11 12  1  0
 12 13  1  0
 12 14  2  0
 14 15  1  0
 15 16  2  0
 15 17  1  0
 17 18  1  0
  5 19  2  0
 19 20  1  0
 20 21  2  0
 21 22  1  0
 22 23  1  0
 21  3  1  0
 17  6  2  0
 14  8  1  0
  1 24  1  0
  1 25  1  0
  2 26  1  0
  4 27  1  0
  9 28  1  0
 10 29  1  0
 11 30  1  0
 13 31  1  0
 18 32  1  0
 19 33  1  0
 20 34  1  0
 22 35  1  0
 22 36  1  0
M  END
>  <meeko>  (8) 
{"is_sidechain": [false], "free_energy": -4.663, "intermolecular_energy": -5.186, "internal_energy": -0.218}

$$$$
