cand_013_out
     RDKit          3D

 50 53  0  0  0  0  0  0  0  0999 V2000
   48.3780   23.9430  -12.9410 C   0  0  0  0  0  0  0  0  0  0  0  0
   47.2070   24.4090  -13.6810 N   0  0  0  0  0  0  0  0  0  0  0  0
   46.0360   23.5460  -13.3980 C   0  0  0  0  0  0  0  0  0  0  0  0
   44.7540   24.0310  -14.1150 C   0  0  0  0  0  0  0  0  0  0  0  0
   44.4660   25.4350  -13.7350 N   0  0  0  0  0  0  0  0  0  0  0  0
   43.2420   25.9040  -14.2400 C   0  0  0  0  0  0  0  0  0  0  0  0
   42.8160   25.6170  -15.5460 C   0  0  0  0  0  0  0  0  0  0  0  0
   41.5930   26.0880  -16.0310 C   0  0  0  0  0  0  0  0  0  0  0  0
   40.7520   26.8560  -15.2200 C   0  0  0  0  0  0  0  0  0  0  0  0
   39.4660   27.3900  -15.7150 C   0  0  0  0  0  0  0  0  0  0  0  0
   39.1130   26.8810  -16.9600 O   0  0  0  0  0  0  0  0  0  0  0  0
   37.9410   27.2960  -17.5390 C   0  0  0  0  0  0  0  0  0  0  0  0
   37.6210   26.7500  -18.7820 C   0  0  0  0  0  0  0  0  0  0  0  0
   36.4410   27.1310  -19.4270 C   0  0  0  0  0  0  0  0  0  0  0  0
   35.5840   28.0570  -18.8280 C   0  0  0  0  0  0  0  0  0  0  0  0
   35.9060   28.5990  -17.5870 C   0  0  0  0  0  0  0  0  0  0  0  0
   35.0230   29.5010  -17.0590 O   0  0  0  0  0  0  0  0  0  0  0  0
   37.0860   28.2180  -16.9430 C   0  0  0  0  0  0  0  0  0  0  0  0
   37.4620   28.7660  -15.6380 C   0  0  0  0  0  0  0  0  0  0  0  0
   36.7650   29.5890  -15.0510 O   0  0  0  0  0  0  0  0  0  0  0  0
   38.7300   28.2910  -15.0370 C   0  0  0  0  0  0  0  0  0  0  0  0
   39.0850   28.8260  -13.8130 O   0  0  0  0  0  0  0  0  0  0  0  0
   41.1780   27.1520  -13.9180 C   0  0  0  0  0  0  0  0  0  0  0  0
   42.4110   26.6830  -13.4170 C   0  0  0  0  0  0  0  0  0  0  0  0
   42.8250   27.0240  -12.0060 C   0  0  0  0  0  0  0  0  0  0  0  0
   43.7260   28.0540  -11.9550 F   0  0  0  0  0  0  0  0  0  0  0  0
   43.4370   25.9950  -11.3500 F   0  0  0  0  0  0  0  0  0  0  0  0
   41.7900   27.4280  -11.2130 F   0  0  0  0  0  0  0  0  0  0  0  0
   45.6130   26.3250  -14.0310 C   0  0  0  0  0  0  0  0  0  0  0  0
   46.8810   25.8070  -13.3130 C   0  0  0  0  0  0  0  0  0  0  0  0
   48.1839   24.0202  -11.8610 H   0  0  0  0  0  0  0  0  0  0  0  0
   48.5836   22.8945  -13.2025 H   0  0  0  0  0  0  0  0  0  0  0  0
   49.2478   24.5635  -13.2025 H   0  0  0  0  0  0  0  0  0  0  0  0
   47.4260   24.3640  -14.6760 H   0  0  0  0  0  0  0  0  0  0  0  0
   46.2624   22.5233  -13.7340 H   0  0  0  0  0  0  0  0  0  0  0  0
   45.8473   23.5842  -12.3150 H   0  0  0  0  0  0  0  0  0  0  0  0
   44.8992   23.9699  -15.2037 H   0  0  0  0  0  0  0  0  0  0  0  0
   43.9084   23.3936  -13.8173 H   0  0  0  0  0  0  0  0  0  0  0  0
   43.4576   25.0092  -16.2009 H   0  0  0  0  0  0  0  0  0  0  0  0
   41.2888   25.8521  -17.0614 H   0  0  0  0  0  0  0  0  0  0  0  0
   38.2961   26.0209  -19.2538 H   0  0  0  0  0  0  0  0  0  0  0  0
   36.1871   26.7012  -20.4072 H   0  0  0  0  0  0  0  0  0  0  0  0
   34.6559   28.3575  -19.3362 H   0  0  0  0  0  0  0  0  0  0  0  0
   35.3330   30.3230  -16.7300 H   0  0  0  0  0  0  0  0  0  0  0  0
   39.8560   28.5230  -13.3750 H   0  0  0  0  0  0  0  0  0  0  0  0
   40.5348   27.7656  -13.2701 H   0  0  0  0  0  0  0  0  0  0  0  0
   45.7902   26.3427  -15.1165 H   0  0  0  0  0  0  0  0  0  0  0  0
   45.3846   27.3403  -13.6746 H   0  0  0  0  0  0  0  0  0  0  0  0
   47.7297   26.4513  -13.5860 H   0  0  0  0  0  0  0  0  0  0  0  0
   46.6876   25.8326  -12.2304 H   0  0  0  0  0  0  0  0  0  0  0  0
  1  2  1  0
  2  3  1  0
  3  4  1  0
  4  5  1  0
  5  6  1  0
  6  7  2  0
  7  8  1  0
  8  9  2  0
  9 10  1  0
 10 11  1  0
 11 12  1  0
 12 13  2  0
 13 14  1  0
 14 15  2  0
 15 16  1  0
 16 17  1  0
 16 18  2  0
 18 19  1  0
 19 20  2  0
 19 21  1  0
 21 22  1  0
  9 23  1  0
 23 24  2  0
 24 25  1  0
 25 26  1  0
 25 27  1  0
 25 28  1  0
  5 29  1  0
 29 30  1  0
 30  2  1  0
 24  6  1  0
 21 10  2  0
 18 12  1  0
  1 31  1  0
  1 32  1  0
  1 33  1  0
  2 34  1  0
  3 35  1  0
  3 36  1  0
  4 37  1  0
  4 38  1  0
  7 39  1  0
  8 40  1  0
 13 41  1  0
 14 42  1  0
 15 43  1  0
 17 44  1  0
 22 45  1  0
 23 46  1  0
 29 47  1  0
 29 48  1  0
 30 49  1  0
 30 50  1  0
M  CHG  1   2   1
M  END
>  <meeko>  (1) 
{"is_sidechain": [false], "free_energy": -0.491, "intermolecular_energy": -0.606, "internal_energy": 0.161}

$$$$
cand_013_out
     RDKit          3D

 50 53  0  0  0  0  0  0  0  0999 V2000
   48.3920   24.2040  -12.4050 C   0  0  0  0  0  0  0  0  0  0  0  0
   47.2910   24.5270  -13.3100 N   0  0  0  0  0  0  0  0  0  0  0  0
   46.1180   23.6660  -13.0290 C   0  0  0  0  0  0  0  0  0  0  0  0
   44.9030   24.0080  -13.9240 C   0  0  0  0  0  0  0  0  0  0  0  0
   44.5460   25.4380  -13.7620 N   0  0  0  0  0  0  0  0  0  0  0  0
   43.3680   25.7940  -14.4400 C   0  0  0  0  0  0  0  0  0  0  0  0
   43.1040   25.3660  -15.7490 C   0  0  0  0  0  0  0  0  0  0  0  0
   41.9250   25.7250  -16.4070 C   0  0  0  0  0  0  0  0  0  0  0  0
   40.9660   26.5190  -15.7710 C   0  0  0  0  0  0  0  0  0  0  0  0
   39.7230   26.9360  -16.4520 C   0  0  0  0  0  0  0  0  0  0  0  0
   38.9700   27.8310  -15.6990 O   0  0  0  0  0  0  0  0  0  0  0  0
   37.7860   28.2980  -16.2120 C   0  0  0  0  0  0  0  0  0  0  0  0
   37.0690   29.2020  -15.4280 C   0  0  0  0  0  0  0  0  0  0  0  0
   35.8550   29.7160  -15.8930 C   0  0  0  0  0  0  0  0  0  0  0  0
   35.3600   29.3250  -17.1370 C   0  0  0  0  0  0  0  0  0  0  0  0
   36.0780   28.4230  -17.9170 C   0  0  0  0  0  0  0  0  0  0  0  0
   35.5350   28.0810  -19.1260 O   0  0  0  0  0  0  0  0  0  0  0  0
   37.2920   27.9090  -17.4530 C   0  0  0  0  0  0  0  0  0  0  0  0
   38.0770   26.9570  -18.2410 C   0  0  0  0  0  0  0  0  0  0  0  0
   37.7050   26.5600  -19.3420 O   0  0  0  0  0  0  0  0  0  0  0  0
   39.3530   26.4780  -17.6620 C   0  0  0  0  0  0  0  0  0  0  0  0
   40.0790   25.5670  -18.4070 O   0  0  0  0  0  0  0  0  0  0  0  0
   41.2300   26.9550  -14.4650 C   0  0  0  0  0  0  0  0  0  0  0  0
   42.4170   26.5990  -13.7900 C   0  0  0  0  0  0  0  0  0  0  0  0
   42.6540   27.0890  -12.3820 C   0  0  0  0  0  0  0  0  0  0  0  0
   43.3810   28.2490  -12.3430 F   0  0  0  0  0  0  0  0  0  0  0  0
   43.3580   26.2130  -11.6080 F   0  0  0  0  0  0  0  0  0  0  0  0
   41.5070   27.3750  -11.7000 F   0  0  0  0  0  0  0  0  0  0  0  0
   45.6960   26.3230  -14.0620 C   0  0  0  0  0  0  0  0  0  0  0  0
   46.8970   25.9480  -13.1630 C   0  0  0  0  0  0  0  0  0  0  0  0
   48.0520   24.3038  -11.3636 H   0  0  0  0  0  0  0  0  0  0  0  0
   48.7236   23.1707  -12.5851 H   0  0  0  0  0  0  0  0  0  0  0  0
   49.2292   24.8944  -12.5851 H   0  0  0  0  0  0  0  0  0  0  0  0
   47.6090   24.3620  -14.2640 H   0  0  0  0  0  0  0  0  0  0  0  0
   46.4004   22.6173  -13.2035 H   0  0  0  0  0  0  0  0  0  0  0  0
   45.8213   23.8367  -11.9836 H   0  0  0  0  0  0  0  0  0  0  0  0
   45.1579   23.8122  -14.9760 H   0  0  0  0  0  0  0  0  0  0  0  0
   44.0468   23.3843  -13.6276 H   0  0  0  0  0  0  0  0  0  0  0  0
   43.8401   24.7348  -16.2683 H   0  0  0  0  0  0  0  0  0  0  0  0
   41.7494   25.3793  -17.4364 H   0  0  0  0  0  0  0  0  0  0  0  0
   37.4580   29.5097  -14.4462 H   0  0  0  0  0  0  0  0  0  0  0  0
   35.2891   30.4301  -15.2767 H   0  0  0  0  0  0  0  0  0  0  0  0
   34.4038   29.7288  -17.5011 H   0  0  0  0  0  0  0  0  0  0  0  0
   34.8060   28.5640  -19.4650 H   0  0  0  0  0  0  0  0  0  0  0  0
   40.2970   25.7570  -19.2980 H   0  0  0  0  0  0  0  0  0  0  0  0
   40.4928   27.5911  -13.9532 H   0  0  0  0  0  0  0  0  0  0  0  0
   45.9804   26.2061  -15.1181 H   0  0  0  0  0  0  0  0  0  0  0  0
   45.4100   27.3672  -13.8674 H   0  0  0  0  0  0  0  0  0  0  0  0
   47.7536   26.5820  -13.4354 H   0  0  0  0  0  0  0  0  0  0  0  0
   46.5950   26.1057  -12.1171 H   0  0  0  0  0  0  0  0  0  0  0  0
  1  2  1  0
  2  3  1  0
  3  4  1  0
  4  5  1  0
  5  6  1  0
  6  7  2  0
  7  8  1  0
  8  9  2  0
  9 10  1  0
 10 11  1  0
 11 12  1  0
 12 13  2  0
 13 14  1  0
 14 15  2  0
 15 16  1  0
 16 17  1  0
 16 18  2  0
 18 19  1  0
 19 20  2  0
 19 21  1  0
 21 22  1  0
  9 23  1  0
 23 24  2  0
 24 25  1  0
 25 26  1  0
 25 27  1  0
 25 28  1  0
  5 29  1  0
 29 30  1  0
 30  2  1  0
 24  6  1  0
 21 10  2  0
 18 12  1  0
  1 31  1  0
  1 32  1  0
  1 33  1  0
  2 34  1  0
  3 35  1  0
  3 36  1  0
  4 37  1  0
  4 38  1  0
  7 39  1  0
  8 40  1  0
 13 41  1  0
 14 42  1  0
 15 43  1  0
 17 44  1  0
 22 45  1  0
 23 46  1  0
 29 47  1  0
 29 48  1  0
 30 49  1  0
 30 50  1  0
M  CHG  1   2   1
M  END
>  <meeko>  (2) 
{"is_sidechain": [false], "free_energy": 0.716, "intermolecular_energy": 0.909, "internal_energy": 0.136}

$$$$
cand_013_out
     RDKit          3D

 50 53  0  0  0  0  0  0  0  0999 V2000
   34.3310   29.5130  -18.9980 C   0  0  0  0  0  0  0  0  0  0  0  0
   35.7060   29.1410  -18.6710 N   0  0  0  0  0  0  0  0  0  0  0  0
   36.0880   29.6780  -17.3430 C   0  0  0  0  0  0  0  0  0  0  0  0
   37.5190   29.2620  -16.9250 C   0  0  0  0  0  0  0  0  0  0  0  0
   37.6380   27.7850  -16.9390 N   0  0  0  0  0  0  0  0  0  0  0  0
   38.8680   27.3240  -16.4410 C   0  0  0  0  0  0  0  0  0  0  0  0
   39.7170   26.5020  -17.1970 C   0  0  0  0  0  0  0  0  0  0  0  0
   40.9400   26.0570  -16.6870 C   0  0  0  0  0  0  0  0  0  0  0  0
   41.3560   26.4270  -15.4060 C   0  0  0  0  0  0  0  0  0  0  0  0
   42.6310   25.9490  -14.8310 C   0  0  0  0  0  0  0  0  0  0  0  0
   43.5960   26.9480  -14.7520 O   0  0  0  0  0  0  0  0  0  0  0  0
   44.8300   26.6390  -14.2400 C   0  0  0  0  0  0  0  0  0  0  0  0
   45.7620   27.6750  -14.1690 C   0  0  0  0  0  0  0  0  0  0  0  0
   47.0390   27.4270  -13.6570 C   0  0  0  0  0  0  0  0  0  0  0  0
   47.3820   26.1470  -13.2190 C   0  0  0  0  0  0  0  0  0  0  0  0
   46.4490   25.1160  -13.2910 C   0  0  0  0  0  0  0  0  0  0  0  0
   46.8510   23.8870  -12.8450 O   0  0  0  0  0  0  0  0  0  0  0  0
   45.1720   25.3640  -13.8030 C   0  0  0  0  0  0  0  0  0  0  0  0
   44.1620   24.3080  -13.8970 C   0  0  0  0  0  0  0  0  0  0  0  0
   44.3890   23.1550  -13.5380 O   0  0  0  0  0  0  0  0  0  0  0  0
   42.8370   24.6760  -14.4470 C   0  0  0  0  0  0  0  0  0  0  0  0
   41.8960   23.6680  -14.5470 O   0  0  0  0  0  0  0  0  0  0  0  0
   40.5070   27.2410  -14.6440 C   0  0  0  0  0  0  0  0  0  0  0  0
   39.2690   27.6980  -15.1470 C   0  0  0  0  0  0  0  0  0  0  0  0
   38.3910   28.5770  -14.2910 C   0  0  0  0  0  0  0  0  0  0  0  0
   38.7180   28.5140  -12.9630 F   0  0  0  0  0  0  0  0  0  0  0  0
   37.0680   28.2440  -14.3380 F   0  0  0  0  0  0  0  0  0  0  0  0
   38.4690   29.9030  -14.6050 F   0  0  0  0  0  0  0  0  0  0  0  0
   37.2850   27.2230  -18.2650 C   0  0  0  0  0  0  0  0  0  0  0  0
   35.8570   27.6670  -18.6610 C   0  0  0  0  0  0  0  0  0  0  0  0
   33.7620   29.6669  -18.0692 H   0  0  0  0  0  0  0  0  0  0  0  0
   34.3326   30.4430  -19.5854 H   0  0  0  0  0  0  0  0  0  0  0  0
   33.8635   28.7091  -19.5854 H   0  0  0  0  0  0  0  0  0  0  0  0
   36.3170   29.5380  -19.3840 H   0  0  0  0  0  0  0  0  0  0  0  0
   36.0360   30.7762  -17.3783 H   0  0  0  0  0  0  0  0  0  0  0  0
   35.3893   29.2637  -16.6013 H   0  0  0  0  0  0  0  0  0  0  0  0
   38.2450   29.6933  -17.6299 H   0  0  0  0  0  0  0  0  0  0  0  0
   37.7223   29.6326  -15.9095 H   0  0  0  0  0  0  0  0  0  0  0  0
   39.4143   26.2018  -18.2110 H   0  0  0  0  0  0  0  0  0  0  0  0
   41.5818   25.4083  -17.3012 H   0  0  0  0  0  0  0  0  0  0  0  0
   45.4927   28.6839  -14.5149 H   0  0  0  0  0  0  0  0  0  0  0  0
   47.7750   28.2424  -13.5992 H   0  0  0  0  0  0  0  0  0  0  0  0
   48.3876   25.9530  -12.8176 H   0  0  0  0  0  0  0  0  0  0  0  0
   47.7470   23.6260  -12.9340 H   0  0  0  0  0  0  0  0  0  0  0  0
   41.4580   23.5150  -15.3610 H   0  0  0  0  0  0  0  0  0  0  0  0
   40.8127   27.5314  -13.6280 H   0  0  0  0  0  0  0  0  0  0  0  0
   38.0014   27.5850  -19.0172 H   0  0  0  0  0  0  0  0  0  0  0  0
   37.3223   26.1248  -18.2148 H   0  0  0  0  0  0  0  0  0  0  0  0
   35.6337   27.2822  -19.6670 H   0  0  0  0  0  0  0  0  0  0  0  0
   35.1604   27.2636  -17.9113 H   0  0  0  0  0  0  0  0  0  0  0  0
  1  2  1  0
  2  3  1  0
  3  4  1  0
  4  5  1  0
  5  6  1  0
  6  7  2  0
  7  8  1  0
  8  9  2  0
  9 10  1  0
 10 11  1  0
 11 12  1  0
 12 13  2  0
 13 14  1  0
 14 15  2  0
 15 16  1  0
 16 17  1  0
 16 18  2  0
 18 19  1  0
 19 20  2  0
 19 21  1  0
 21 22  1  0
  9 23  1  0
 23 24  2  0
 24 25  1  0
 25 26  1  0
 25 27  1  0
 25 28  1  0
  5 29  1  0
 29 30  1  0
 30  2  1  0
 24  6  1  0
 21 10  2  0
 18 12  1  0
  1 31  1  0
  1 32  1  0
  1 33  1  0
  2 34  1  0
  3 35  1  0
  3 36  1  0
  4 37  1  0
  4 38  1  0
  7 39  1  0
  8 40  1  0
 13 41  1  0
 14 42  1  0
 15 43  1  0
 17 44  1  0
 22 45  1  0
 23 46  1  0
 29 47  1  0
 29 48  1  0
 30 49  1  0
 30 50  1  0
M  CHG  1   2   1
M  END
>  <meeko>  (3) 
{"is_sidechain": [false], "free_energy": 1.342, "intermolecular_energy": 0.823, "internal_energy": 0.994}

$$$$
cand_013_out
     RDKit          3D

 50 53  0  0  0  0  0  0  0  0999 V2000
   48.5040   23.6390  -13.1400 C   0  0  0  0  0  0  0  0  0  0  0  0
   47.2710   24.0340  -13.8170 N   0  0  0  0  0  0  0  0  0  0  0  0
   46.0920   23.4570  -13.1300 C   0  0  0  0  0  0  0  0  0  0  0  0
   44.7560   23.8940  -13.7770 C   0  0  0  0  0  0  0  0  0  0  0  0
   44.6680   25.3730  -13.8010 N   0  0  0  0  0  0  0  0  0  0  0  0
   43.4240   25.8460  -14.2510 C   0  0  0  0  0  0  0  0  0  0  0  0
   42.8050   25.3360  -15.4020 C   0  0  0  0  0  0  0  0  0  0  0  0
   41.5650   25.8140  -15.8330 C   0  0  0  0  0  0  0  0  0  0  0  0
   40.9000   26.8150  -15.1200 C   0  0  0  0  0  0  0  0  0  0  0  0
   39.6000   27.3590  -15.5670 C   0  0  0  0  0  0  0  0  0  0  0  0
   39.2520   26.9420  -16.8470 O   0  0  0  0  0  0  0  0  0  0  0  0
   38.0680   27.3770  -17.3870 C   0  0  0  0  0  0  0  0  0  0  0  0
   37.7540   26.9240  -18.6690 C   0  0  0  0  0  0  0  0  0  0  0  0
   36.5630   27.3300  -19.2770 C   0  0  0  0  0  0  0  0  0  0  0  0
   35.6900   28.1870  -18.6050 C   0  0  0  0  0  0  0  0  0  0  0  0
   36.0070   28.6360  -17.3260 C   0  0  0  0  0  0  0  0  0  0  0  0
   35.1070   29.4750  -16.7240 O   0  0  0  0  0  0  0  0  0  0  0  0
   37.1970   28.2310  -16.7170 C   0  0  0  0  0  0  0  0  0  0  0  0
   37.5690   28.6810  -15.3750 C   0  0  0  0  0  0  0  0  0  0  0  0
   36.8570   29.4400  -14.7220 O   0  0  0  0  0  0  0  0  0  0  0  0
   38.8490   28.1880  -14.8170 C   0  0  0  0  0  0  0  0  0  0  0  0
   39.1980   28.6310  -13.5560 O   0  0  0  0  0  0  0  0  0  0  0  0
   41.5180   27.3330  -13.9740 C   0  0  0  0  0  0  0  0  0  0  0  0
   42.7710   26.8590  -13.5280 C   0  0  0  0  0  0  0  0  0  0  0  0
   43.3950   27.4440  -12.2850 C   0  0  0  0  0  0  0  0  0  0  0  0
   42.7290   27.0870  -11.1430 F   0  0  0  0  0  0  0  0  0  0  0  0
   43.4050   28.8090  -12.2670 F   0  0  0  0  0  0  0  0  0  0  0  0
   44.6820   27.0440  -12.0760 F   0  0  0  0  0  0  0  0  0  0  0  0
   45.8250   25.9750  -14.5060 C   0  0  0  0  0  0  0  0  0  0  0  0
   47.1440   25.5100  -13.8460 C   0  0  0  0  0  0  0  0  0  0  0  0
   48.3558   23.6865  -12.0511 H   0  0  0  0  0  0  0  0  0  0  0  0
   48.7683   22.6112  -13.4296 H   0  0  0  0  0  0  0  0  0  0  0  0
   49.3163   24.3219  -13.4296 H   0  0  0  0  0  0  0  0  0  0  0  0
   47.3110   23.6800  -14.7730 H   0  0  0  0  0  0  0  0  0  0  0  0
   46.1616   22.3600  -13.1713 H   0  0  0  0  0  0  0  0  0  0  0  0
   46.0968   23.8241  -12.0931 H   0  0  0  0  0  0  0  0  0  0  0  0
   44.7058   23.5088  -14.8061 H   0  0  0  0  0  0  0  0  0  0  0  0
   43.9191   23.4906  -13.1881 H   0  0  0  0  0  0  0  0  0  0  0  0
   43.3063   24.5435  -15.9770 H   0  0  0  0  0  0  0  0  0  0  0  0
   41.1075   25.3982  -16.7428 H   0  0  0  0  0  0  0  0  0  0  0  0
   38.4420   26.2493  -19.1995 H   0  0  0  0  0  0  0  0  0  0  0  0
   36.3131   26.9735  -20.2872 H   0  0  0  0  0  0  0  0  0  0  0  0
   34.7534   28.5070  -19.0850 H   0  0  0  0  0  0  0  0  0  0  0  0
   34.3460   29.1220  -16.3060 H   0  0  0  0  0  0  0  0  0  0  0  0
   39.2020   29.5490  -13.3660 H   0  0  0  0  0  0  0  0  0  0  0  0
   41.0139   28.1296  -13.4071 H   0  0  0  0  0  0  0  0  0  0  0  0
   45.8139   25.6603  -15.5600 H   0  0  0  0  0  0  0  0  0  0  0  0
   45.7561   27.0711  -14.4444 H   0  0  0  0  0  0  0  0  0  0  0  0
   47.9891   25.9263  -14.4139 H   0  0  0  0  0  0  0  0  0  0  0  0
   47.1427   25.8672  -12.8056 H   0  0  0  0  0  0  0  0  0  0  0  0
  1  2  1  0
  2  3  1  0
  3  4  1  0
  4  5  1  0
  5  6  1  0
  6  7  2  0
  7  8  1  0
  8  9  2  0
  9 10  1  0
 10 11  1  0
 11 12  1  0
 12 13  2  0
 13 14  1  0
 14 15  2  0
 15 16  1  0
 16 17  1  0
 16 18  2  0
 18 19  1  0
 19 20  2  0
 19 21  1  0
 21 22  1  0
  9 23  1  0
 23 24  2  0
 24 25  1  0
 25 26  1  0
 25 27  1  0
 25 28  1  0
  5 29  1  0
 29 30  1  0
 30  2  1  0
 24  6  1  0
 21 10  2  0
 18 12  1  0
  1 31  1  0
  1 32  1  0
  1 33  1  0
  2 34  1  0
  3 35  1  0
  3 36  1  0
  4 37  1  0
  4 38  1  0
  7 39  1  0
  8 40  1  0
 13 41  1  0
 14 42  1  0
 15 43  1  0
 17 44  1  0
 22 45  1  0
 23 46  1  0
 29 47  1  0
 29 48  1  0
 30 49  1  0
 30 50  1  0
M  CHG  1   2   1
M  END
>  <meeko>  (4) 
{"is_sidechain": [false], "free_energy": 1.655, "intermolecular_energy": 1.511, "internal_energy": 0.692}

$$$$
cand_013_out
     RDKit          3D

 50 53  0  0  0  0  0  0  0  0999 V2000
   34.1960   29.1910  -19.5580 C   0  0  0  0  0  0  0  0  0  0  0  0
   35.5360   28.9260  -19.0370 N   0  0  0  0  0  0  0  0  0  0  0  0
   35.7160   29.5670  -17.7140 C   0  0  0  0  0  0  0  0  0  0  0  0
   37.1010   29.2690  -17.0930 C   0  0  0  0  0  0  0  0  0  0  0  0
   37.3010   27.8040  -16.9890 N   0  0  0  0  0  0  0  0  0  0  0  0
   38.4810   27.4530  -16.3110 C   0  0  0  0  0  0  0  0  0  0  0  0
   39.3870   26.5170  -16.8300 C   0  0  0  0  0  0  0  0  0  0  0  0
   40.5580   26.1830  -16.1440 C   0  0  0  0  0  0  0  0  0  0  0  0
   40.8640   26.7830  -14.9200 C   0  0  0  0  0  0  0  0  0  0  0  0
   42.0820   26.4300  -14.1600 C   0  0  0  0  0  0  0  0  0  0  0  0
   43.0950   25.9260  -14.9680 O   0  0  0  0  0  0  0  0  0  0  0  0
   44.2820   25.5540  -14.3900 C   0  0  0  0  0  0  0  0  0  0  0  0
   45.2740   25.0650  -15.2400 C   0  0  0  0  0  0  0  0  0  0  0  0
   46.5070   24.6680  -14.7140 C   0  0  0  0  0  0  0  0  0  0  0  0
   46.7460   24.7610  -13.3420 C   0  0  0  0  0  0  0  0  0  0  0  0
   45.7530   25.2500  -12.4970 C   0  0  0  0  0  0  0  0  0  0  0  0
   46.0530   25.3130  -11.1630 O   0  0  0  0  0  0  0  0  0  0  0  0
   44.5210   25.6470  -13.0220 C   0  0  0  0  0  0  0  0  0  0  0  0
   43.4510   26.1650  -12.1680 C   0  0  0  0  0  0  0  0  0  0  0  0
   43.5810   26.2700  -10.9520 O   0  0  0  0  0  0  0  0  0  0  0  0
   42.1840   26.5640  -12.8250 C   0  0  0  0  0  0  0  0  0  0  0  0
   41.1740   27.0370  -12.0080 O   0  0  0  0  0  0  0  0  0  0  0  0
   39.9570   27.7140  -14.3950 C   0  0  0  0  0  0  0  0  0  0  0  0
   38.7700   28.0590  -15.0770 C   0  0  0  0  0  0  0  0  0  0  0  0
   37.8270   29.0710  -14.4740 C   0  0  0  0  0  0  0  0  0  0  0  0
   38.0460   29.2620  -13.1360 F   0  0  0  0  0  0  0  0  0  0  0  0
   36.5120   28.7150  -14.5620 F   0  0  0  0  0  0  0  0  0  0  0  0
   37.9300   30.3150  -15.0240 F   0  0  0  0  0  0  0  0  0  0  0  0
   37.1520   27.1400  -18.3070 C   0  0  0  0  0  0  0  0  0  0  0  0
   35.7650   27.4680  -18.9060 C   0  0  0  0  0  0  0  0  0  0  0  0
   33.4973   29.3292  -18.7197 H   0  0  0  0  0  0  0  0  0  0  0  0
   34.2154   30.1027  -20.1732 H   0  0  0  0  0  0  0  0  0  0  0  0
   33.8670   28.3405  -20.1732 H   0  0  0  0  0  0  0  0  0  0  0  0
   36.2110   29.3160  -19.6950 H   0  0  0  0  0  0  0  0  0  0  0  0
   35.6096   30.6554  -17.8323 H   0  0  0  0  0  0  0  0  0  0  0  0
   34.9519   29.1562  -17.0377 H   0  0  0  0  0  0  0  0  0  0  0  0
   37.8871   29.7004  -17.7301 H   0  0  0  0  0  0  0  0  0  0  0  0
   37.1515   29.7143  -16.0884 H   0  0  0  0  0  0  0  0  0  0  0  0
   39.1719   26.0363  -17.7958 H   0  0  0  0  0  0  0  0  0  0  0  0
   41.2462   25.4396  -16.5725 H   0  0  0  0  0  0  0  0  0  0  0  0
   45.0866   24.9919  -16.3215 H   0  0  0  0  0  0  0  0  0  0  0  0
   47.2903   24.2816  -15.3827 H   0  0  0  0  0  0  0  0  0  0  0  0
   47.7166   24.4487  -12.9291 H   0  0  0  0  0  0  0  0  0  0  0  0
   46.1750   24.5230  -10.6730 H   0  0  0  0  0  0  0  0  0  0  0  0
   40.9150   26.5480  -11.2520 H   0  0  0  0  0  0  0  0  0  0  0  0
   40.1758   28.1879  -13.4267 H   0  0  0  0  0  0  0  0  0  0  0  0
   37.9378   27.4994  -18.9877 H   0  0  0  0  0  0  0  0  0  0  0  0
   37.2428   26.0515  -18.1771 H   0  0  0  0  0  0  0  0  0  0  0  0
   35.6931   27.0083  -19.9028 H   0  0  0  0  0  0  0  0  0  0  0  0
   35.0017   27.0691  -18.2218 H   0  0  0  0  0  0  0  0  0  0  0  0
  1  2  1  0
  2  3  1  0
  3  4  1  0
  4  5  1  0
  5  6  1  0
  6  7  2  0
  7  8  1  0
  8  9  2  0
  9 10  1  0
 10 11  1  0
 11 12  1  0
 12 13  2  0
 13 14  1  0
 14 15  2  0
 15 16  1  0
 16 17  1  0
 16 18  2  0
 18 19  1  0
 19 20  2  0
 19 21  1  0
 21 22  1  0
  9 23  1  0
 23 24  2  0
 24 25  1  0
 25 26  1  0
 25 27  1  0
 25 28  1  0
  5 29  1  0
 29 30  1  0
 30  2  1  0
 24  6  1  0
 21 10  2  0
 18 12  1  0
  1 31  1  0
  1 32  1  0
  1 33  1  0
  2 34  1  0
  3 35  1  0
  3 36  1  0
  4 37  1  0
  4 38  1  0
  7 39  1  0
  8 40  1  0
 13 41  1  0
 14 42  1  0
 15 43  1  0
 17 44  1  0
 22 45  1  0
 23 46  1  0
 29 47  1  0
 29 48  1  0
 30 49  1  0
 30 50  1  0
M  CHG  1   2   1
M  END
>  <meeko>  (5) 
{"is_sidechain": [false], "free_energy": 1.998, "intermolecular_energy": 0.521, "internal_energy": 2.106}

$$$$
