cand_040_out
     RDKit          3D

 36 38  0  0  0  0  0  0  0  0999 V2000
   46.7060   24.7080  -13.7440 C   0  0  0  0  0  0  0  0  0  0  0  0
   45.5070   24.6990  -13.1500 C   0  0  0  0  0  0  0  0  0  0  0  0
   44.2900   25.2400  -13.7730 C   0  0  0  0  0  0  0  0  0  0  0  0
   43.6110   24.4830  -14.7380 C   0  0  0  0  0  0  0  0  0  0  0  0
   42.4320   24.9540  -15.3240 C   0  0  0  0  0  0  0  0  0  0  0  0
   41.8920   26.1890  -14.9490 C   0  0  0  0  0  0  0  0  0  0  0  0
   40.6580   26.6800  -15.5970 C   0  0  0  0  0  0  0  0  0  0  0  0
   39.9030   27.5030  -14.7680 O   0  0  0  0  0  0  0  0  0  0  0  0
   38.7310   28.0290  -15.2450 C   0  0  0  0  0  0  0  0  0  0  0  0
   37.9970   28.8360  -14.3730 C   0  0  0  0  0  0  0  0  0  0  0  0
   36.7950   29.4050  -14.7970 C   0  0  0  0  0  0  0  0  0  0  0  0
   36.3240   29.1670  -16.0910 C   0  0  0  0  0  0  0  0  0  0  0  0
   37.0580   28.3610  -16.9580 C   0  0  0  0  0  0  0  0  0  0  0  0
   36.5410   28.1710  -18.2100 O   0  0  0  0  0  0  0  0  0  0  0  0
   38.2620   27.7920  -16.5340 C   0  0  0  0  0  0  0  0  0  0  0  0
   39.0630   26.9390  -17.4120 C   0  0  0  0  0  0  0  0  0  0  0  0
   38.7200   26.6890  -18.5670 O   0  0  0  0  0  0  0  0  0  0  0  0
   40.3190   26.3770  -16.8650 C   0  0  0  0  0  0  0  0  0  0  0  0
   41.0750   25.5850  -17.7070 O   0  0  0  0  0  0  0  0  0  0  0  0
   42.5710   26.9470  -13.9840 C   0  0  0  0  0  0  0  0  0  0  0  0
   43.7630   26.4870  -13.3870 C   0  0  0  0  0  0  0  0  0  0  0  0
   44.4330   27.3460  -12.3490 C   0  0  0  0  0  0  0  0  0  0  0  0
   47.5800   24.2874  -13.2251 H   0  0  0  0  0  0  0  0  0  0  0  0
   46.8176   25.1360  -14.7512 H   0  0  0  0  0  0  0  0  0  0  0  0
   45.4277   24.2640  -12.1428 H   0  0  0  0  0  0  0  0  0  0  0  0
   44.0117   23.5037  -15.0387 H   0  0  0  0  0  0  0  0  0  0  0  0
   41.9238   24.3472  -16.0878 H   0  0  0  0  0  0  0  0  0  0  0  0
   38.3656   29.0229  -13.3536 H   0  0  0  0  0  0  0  0  0  0  0  0
   36.2173   30.0421  -14.1112 H   0  0  0  0  0  0  0  0  0  0  0  0
   35.3761   29.6150  -16.4240 H   0  0  0  0  0  0  0  0  0  0  0  0
   35.8280   28.7010  -18.5080 H   0  0  0  0  0  0  0  0  0  0  0  0
   41.8760   25.9130  -18.0670 H   0  0  0  0  0  0  0  0  0  0  0  0
   42.1638   27.9243  -13.6854 H   0  0  0  0  0  0  0  0  0  0  0  0
   44.1563   26.9912  -11.3452 H   0  0  0  0  0  0  0  0  0  0  0  0
   45.5245   27.2850  -12.4715 H   0  0  0  0  0  0  0  0  0  0  0  0
   44.1081   28.3897  -12.4715 H   0  0  0  0  0  0  0  0  0  0  0  0
  1  2  2  0
  2  3  1  0
  3  4  2  0
  4  5  1  0
  5  6  2  0
  6  7  1  0
  7  8  1  0
  8  9  1  0
  9 10  2  0
 10 11  1  0
 11 12  2  0
 12 13  1  0
 13 14  1  0
 13 15  2  0
 15 16  1  0
 16 17  2  0
 16 18  1  0
 18 19  1  0
  6 20  1  0
 20 21  2  0
 21 22  1  0
 21  3  1  0
 18  7  2  0
 15  9  1  0
  1 23  1  0
  1 24  1  0
  2 25  1  0
  4 26  1  0
  5 27  1  0
 10 28  1  0
 11 29  1  0
 12 30  1  0
 14 31  1  0
 19 32  1  0
 20 33  1  0
 22 34  1  0
 22 35  1  0
 22 36  1  0
M  END
>  <meeko>  (1) 
{"is_sidechain": [false], "free_energy": -8.659, "intermolecular_energy": -10.178, "internal_energy": 0.054}

$$$$
cand_040_out
     RDKit          3D

 36 38  0  0  0  0  0  0  0  0999 V2000
   46.9750   24.7620  -14.1590 C   0  0  0  0  0  0  0  0  0  0  0  0
   45.8430   24.5070  -13.4910 C   0  0  0  0  0  0  0  0  0  0  0  0
   44.5770   25.2090  -13.7450 C   0  0  0  0  0  0  0  0  0  0  0  0
   43.6000   24.6050  -14.5490 C   0  0  0  0  0  0  0  0  0  0  0  0
   42.3710   25.2300  -14.7810 C   0  0  0  0  0  0  0  0  0  0  0  0
   42.0810   26.4710  -14.2040 C   0  0  0  0  0  0  0  0  0  0  0  0
   40.7860   27.1270  -14.4800 C   0  0  0  0  0  0  0  0  0  0  0  0
   40.3070   26.8600  -15.7580 O   0  0  0  0  0  0  0  0  0  0  0  0
   39.1120   27.4060  -16.1470 C   0  0  0  0  0  0  0  0  0  0  0  0
   38.6780   27.1240  -17.4430 C   0  0  0  0  0  0  0  0  0  0  0  0
   37.4670   27.6490  -17.9020 C   0  0  0  0  0  0  0  0  0  0  0  0
   36.6920   28.4550  -17.0650 C   0  0  0  0  0  0  0  0  0  0  0  0
   37.1280   28.7350  -15.7730 C   0  0  0  0  0  0  0  0  0  0  0  0
   36.3200   29.5300  -15.0070 O   0  0  0  0  0  0  0  0  0  0  0  0
   38.3390   28.2100  -15.3140 C   0  0  0  0  0  0  0  0  0  0  0  0
   38.8340   28.4800  -13.9640 C   0  0  0  0  0  0  0  0  0  0  0  0
   38.2050   29.1740  -13.1670 O   0  0  0  0  0  0  0  0  0  0  0  0
   40.1340   27.8840  -13.5780 C   0  0  0  0  0  0  0  0  0  0  0  0
   40.5850   28.1340  -12.2960 O   0  0  0  0  0  0  0  0  0  0  0  0
   43.0580   27.0760  -13.3990 C   0  0  0  0  0  0  0  0  0  0  0  0
   44.3030   26.4600  -13.1590 C   0  0  0  0  0  0  0  0  0  0  0  0
   45.3010   27.1590  -12.2760 C   0  0  0  0  0  0  0  0  0  0  0  0
   47.8915   24.2016  -13.9222 H   0  0  0  0  0  0  0  0  0  0  0  0
   46.9885   25.5319  -14.9446 H   0  0  0  0  0  0  0  0  0  0  0  0
   45.8615   23.7314  -12.7112 H   0  0  0  0  0  0  0  0  0  0  0  0
   43.8035   23.6245  -15.0042 H   0  0  0  0  0  0  0  0  0  0  0  0
   41.6244   24.7409  -15.4239 H   0  0  0  0  0  0  0  0  0  0  0  0
   39.2883   26.4893  -18.1023 H   0  0  0  0  0  0  0  0  0  0  0  0
   37.1238   27.4273  -18.9233 H   0  0  0  0  0  0  0  0  0  0  0  0
   35.7386   28.8679  -17.4262 H   0  0  0  0  0  0  0  0  0  0  0  0
   35.9820   30.3310  -15.3570 H   0  0  0  0  0  0  0  0  0  0  0  0
   41.1620   27.5260  -11.8750 H   0  0  0  0  0  0  0  0  0  0  0  0
   42.8473   28.0551  -12.9440 H   0  0  0  0  0  0  0  0  0  0  0  0
   45.0457   26.9802  -11.2211 H   0  0  0  0  0  0  0  0  0  0  0  0
   46.3087   26.7682  -12.4807 H   0  0  0  0  0  0  0  0  0  0  0  0
   45.2782   28.2395  -12.4807 H   0  0  0  0  0  0  0  0  0  0  0  0
  1  2  2  0
  2  3  1  0
  3  4  2  0
  4  5  1  0
  5  6  2  0
  6  7  1  0
  7  8  1  0
  8  9  1  0
  9 10  2  0
 10 11  1  0
 11 12  2  0
 12 13  1  0
 13 14  1  0
 13 15  2  0
 15 16  1  0
 16 17  2  0
 16 18  1  0
 18 19  1  0
  6 20  1  0
 20 21  2  0
 21 22  1  0
 21  3  1  0
 18  7  2  0
 15  9  1  0
  1 23  1  0
  1 24  1  0
  2 25  1  0
  4 26  1  0
  5 27  1  0
 10 28  1  0
 11 29  1  0
 12 30  1  0
 14 31  1  0
 19 32  1  0
 20 33  1  0
 22 34  1  0
 22 35  1  0
 22 36  1  0
M  END
>  <meeko>  (2) 
{"is_sidechain": [false], "free_energy": -8.548, "intermolecular_energy": -10.035, "internal_energy": 0.041}

$$$$
cand_040_out
     RDKit          3D

 36 38  0  0  0  0  0  0  0  0999 V2000
   34.9860   29.9010  -18.1340 C   0  0  0  0  0  0  0  0  0  0  0  0
   35.6940   28.7740  -18.2790 C   0  0  0  0  0  0  0  0  0  0  0  0
   36.8120   28.4010  -17.4000 C   0  0  0  0  0  0  0  0  0  0  0  0
   37.0160   29.1020  -16.2030 C   0  0  0  0  0  0  0  0  0  0  0  0
   38.0480   28.7500  -15.3290 C   0  0  0  0  0  0  0  0  0  0  0  0
   38.8970   27.6760  -15.6220 C   0  0  0  0  0  0  0  0  0  0  0  0
   39.9970   27.3340  -14.6970 C   0  0  0  0  0  0  0  0  0  0  0  0
   41.0280   26.6380  -15.3180 O   0  0  0  0  0  0  0  0  0  0  0  0
   42.1150   26.2580  -14.5740 C   0  0  0  0  0  0  0  0  0  0  0  0
   43.1180   25.5470  -15.2350 C   0  0  0  0  0  0  0  0  0  0  0  0
   44.2530   25.1320  -14.5350 C   0  0  0  0  0  0  0  0  0  0  0  0
   44.3850   25.4260  -13.1760 C   0  0  0  0  0  0  0  0  0  0  0  0
   43.3820   26.1350  -12.5200 C   0  0  0  0  0  0  0  0  0  0  0  0
   43.5760   26.3900  -11.1900 O   0  0  0  0  0  0  0  0  0  0  0  0
   42.2460   26.5510  -13.2200 C   0  0  0  0  0  0  0  0  0  0  0  0
   41.1690   27.2970  -12.5690 C   0  0  0  0  0  0  0  0  0  0  0  0
   41.2160   27.6010  -11.3780 O   0  0  0  0  0  0  0  0  0  0  0  0
   40.0040   27.6840  -13.3970 C   0  0  0  0  0  0  0  0  0  0  0  0
   39.0000   28.4000  -12.7750 O   0  0  0  0  0  0  0  0  0  0  0  0
   38.6930   26.9740  -16.8200 C   0  0  0  0  0  0  0  0  0  0  0  0
   37.6590   27.3210  -17.7120 C   0  0  0  0  0  0  0  0  0  0  0  0
   37.4900   26.5170  -18.9740 C   0  0  0  0  0  0  0  0  0  0  0  0
   34.1597   30.1242  -18.8250 H   0  0  0  0  0  0  0  0  0  0  0  0
   35.2306   30.6038  -17.3239 H   0  0  0  0  0  0  0  0  0  0  0  0
   35.4252   28.0914  -19.0986 H   0  0  0  0  0  0  0  0  0  0  0  0
   36.3534   29.9421  -15.9479 H   0  0  0  0  0  0  0  0  0  0  0  0
   38.1948   29.3226  -14.4013 H   0  0  0  0  0  0  0  0  0  0  0  0
   43.0146   25.3140  -16.3051 H   0  0  0  0  0  0  0  0  0  0  0  0
   45.0446   24.5725  -15.0550 H   0  0  0  0  0  0  0  0  0  0  0  0
   45.2790   25.0983  -12.6253 H   0  0  0  0  0  0  0  0  0  0  0  0
   43.8430   27.2440  -10.9100 H   0  0  0  0  0  0  0  0  0  0  0  0
   38.3330   28.8150  -13.2880 H   0  0  0  0  0  0  0  0  0  0  0  0
   39.3564   26.1325  -17.0686 H   0  0  0  0  0  0  0  0  0  0  0  0
   37.2701   25.4707  -18.7155 H   0  0  0  0  0  0  0  0  0  0  0  0
   36.6593   26.9313  -19.5642 H   0  0  0  0  0  0  0  0  0  0  0  0
   38.4172   26.5618  -19.5642 H   0  0  0  0  0  0  0  0  0  0  0  0
  1  2  2  0
  2  3  1  0
  3  4  2  0
  4  5  1  0
  5  6  2  0
  6  7  1  0
  7  8  1  0
  8  9  1  0
  9 10  2  0
 10 11  1  0
 11 12  2  0
 12 13  1  0
 13 14  1  0
 13 15  2  0
 15 16  1  0
 16 17  2  0
 16 18  1  0
 18 19  1  0
  6 20  1  0
 20 21  2  0
 21 22  1  0
 21  3  1  0
 18  7  2  0
 15  9  1  0
  1 23  1  0
  1 24  1  0
  2 25  1  0
  4 26  1  0
  5 27  1  0
 10 28  1  0
 11 29  1  0
 12 30  1  0
 14 31  1  0
 19 32  1  0
 20 33  1  0
 22 34  1  0
 22 35  1  0
 22 36  1  0
M  END
>  <meeko>  (3) 
{"is_sidechain": [false], "free_energy": -7.531, "intermolecular_energy": -8.947, "internal_energy": 0.149}

$$$$
cand_040_out
     RDKit          3D

 36 38  0  0  0  0  0  0  0  0999 V2000
   47.3290   25.0720  -14.0550 C   0  0  0  0  0  0  0  0  0  0  0  0
   46.3120   25.0290  -13.1850 C   0  0  0  0  0  0  0  0  0  0  0  0
   44.9640   25.5300  -13.4870 C   0  0  0  0  0  0  0  0  0  0  0  0
   44.7120   26.9080  -13.4470 C   0  0  0  0  0  0  0  0  0  0  0  0
   43.4500   27.4190  -13.7630 C   0  0  0  0  0  0  0  0  0  0  0  0
   42.4080   26.5650  -14.1420 C   0  0  0  0  0  0  0  0  0  0  0  0
   41.0740   27.1220  -14.4500 C   0  0  0  0  0  0  0  0  0  0  0  0
   40.6310   26.7910  -15.7250 O   0  0  0  0  0  0  0  0  0  0  0  0
   39.4060   27.2440  -16.1410 C   0  0  0  0  0  0  0  0  0  0  0  0
   39.0090   26.9000  -17.4340 C   0  0  0  0  0  0  0  0  0  0  0  0
   37.7710   27.3280  -17.9190 C   0  0  0  0  0  0  0  0  0  0  0  0
   36.9310   28.0990  -17.1110 C   0  0  0  0  0  0  0  0  0  0  0  0
   37.3310   28.4400  -15.8220 C   0  0  0  0  0  0  0  0  0  0  0  0
   36.4600   29.1960  -15.0860 O   0  0  0  0  0  0  0  0  0  0  0  0
   38.5690   28.0120  -15.3370 C   0  0  0  0  0  0  0  0  0  0  0  0
   39.0280   28.3490  -13.9890 C   0  0  0  0  0  0  0  0  0  0  0  0
   38.3420   29.0170  -13.2160 O   0  0  0  0  0  0  0  0  0  0  0  0
   40.3600   27.8530  -13.5730 C   0  0  0  0  0  0  0  0  0  0  0  0
   40.7770   28.1650  -12.2940 O   0  0  0  0  0  0  0  0  0  0  0  0
   42.6590   25.1850  -14.1820 C   0  0  0  0  0  0  0  0  0  0  0  0
   43.9250   24.6550  -13.8630 C   0  0  0  0  0  0  0  0  0  0  0  0
   44.1290   23.1660  -13.9380 C   0  0  0  0  0  0  0  0  0  0  0  0
   48.3157   24.6798  -13.7675 H   0  0  0  0  0  0  0  0  0  0  0  0
   47.1778   25.4995  -15.0572 H   0  0  0  0  0  0  0  0  0  0  0  0
   46.4955   24.5954  -12.1909 H   0  0  0  0  0  0  0  0  0  0  0  0
   45.5199   27.5982  -13.1625 H   0  0  0  0  0  0  0  0  0  0  0  0
   43.2740   28.5037  -13.7133 H   0  0  0  0  0  0  0  0  0  0  0  0
   39.6699   26.2929  -18.0701 H   0  0  0  0  0  0  0  0  0  0  0  0
   37.4569   27.0579  -18.9380 H   0  0  0  0  0  0  0  0  0  0  0  0
   35.9558   28.4357  -17.4927 H   0  0  0  0  0  0  0  0  0  0  0  0
   36.7680   29.6790  -14.3440 H   0  0  0  0  0  0  0  0  0  0  0  0
   41.0420   29.0410  -12.0870 H   0  0  0  0  0  0  0  0  0  0  0  0
   41.8476   24.5002  -14.4694 H   0  0  0  0  0  0  0  0  0  0  0  0
   44.1857   22.7520  -12.9205 H   0  0  0  0  0  0  0  0  0  0  0  0
   43.2854   22.7069  -14.4742 H   0  0  0  0  0  0  0  0  0  0  0  0
   45.0650   22.9507  -14.4742 H   0  0  0  0  0  0  0  0  0  0  0  0
  1  2  2  0
  2  3  1  0
  3  4  2  0
  4  5  1  0
  5  6  2  0
  6  7  1  0
  7  8  1  0
  8  9  1  0
  9 10  2  0
 10 11  1  0
 11 12  2  0
 12 13  1  0
 13 14  1  0
 13 15  2  0
 15 16  1  0
 16 17  2  0
 16 18  1  0
 18 19  1  0
  6 20  1  0
 20 21  2  0
 21 22  1  0
 21  3  1  0
 18  7  2  0
 15  9  1  0
  1 23  1  0
  1 24  1  0
  2 25  1  0
  4 26  1  0
  5 27  1  0
 10 28  1  0
 11 29  1  0
 12 30  1  0
 14 31  1  0
 19 32  1  0
 20 33  1  0
 22 34  1  0
 22 35  1  0
 22 36  1  0
M  END
>  <meeko>  (4) 
{"is_sidechain": [false], "free_energy": -5.842, "intermolecular_energy": -6.535, "internal_energy": -0.277}

$$$$
