cand_051_out
     RDKit          3D

 44 46  0  0  0  0  0  0  0  0999 V2000
   43.7040   26.9350  -11.8170 C   0  0  0  0  0  0  0  0  0  0  0  0
   43.3470   26.3020  -13.1340 C   0  0  0  0  0  0  0  0  0  0  0  0
   42.1940   26.7500  -13.8070 C   0  0  0  0  0  0  0  0  0  0  0  0
   41.7950   26.2040  -15.0370 C   0  0  0  0  0  0  0  0  0  0  0  0
   40.5640   26.6910  -15.6950 C   0  0  0  0  0  0  0  0  0  0  0  0
   39.7970   27.5040  -14.8690 O   0  0  0  0  0  0  0  0  0  0  0  0
   38.6240   28.0250  -15.3550 C   0  0  0  0  0  0  0  0  0  0  0  0
   37.8780   28.8250  -14.4880 C   0  0  0  0  0  0  0  0  0  0  0  0
   36.6760   29.3880  -14.9210 C   0  0  0  0  0  0  0  0  0  0  0  0
   36.2190   29.1520  -16.2180 C   0  0  0  0  0  0  0  0  0  0  0  0
   36.9660   28.3540  -17.0820 C   0  0  0  0  0  0  0  0  0  0  0  0
   36.4610   28.1650  -18.3400 O   0  0  0  0  0  0  0  0  0  0  0  0
   38.1690   27.7900  -16.6490 C   0  0  0  0  0  0  0  0  0  0  0  0
   38.9830   26.9460  -17.5240 C   0  0  0  0  0  0  0  0  0  0  0  0
   38.6520   26.6990  -18.6820 O   0  0  0  0  0  0  0  0  0  0  0  0
   40.2380   26.3900  -16.9660 C   0  0  0  0  0  0  0  0  0  0  0  0
   41.0060   25.6050  -17.8060 O   0  0  0  0  0  0  0  0  0  0  0  0
   42.5640   25.1740  -15.5850 C   0  0  0  0  0  0  0  0  0  0  0  0
   43.7100   24.7160  -14.9290 C   0  0  0  0  0  0  0  0  0  0  0  0
   44.1190   25.2710  -13.7050 C   0  0  0  0  0  0  0  0  0  0  0  0
   45.3750   24.7260  -13.0540 C   0  0  0  0  0  0  0  0  0  0  0  0
   46.6330   24.8190  -13.9410 C   0  0  0  0  0  0  0  0  0  0  0  0
   47.7670   23.9990  -13.3210 C   0  0  0  0  0  0  0  0  0  0  0  0
   47.0940   26.2650  -14.1400 C   0  0  0  0  0  0  0  0  0  0  0  0
   43.3450   26.2984  -10.9949 H   0  0  0  0  0  0  0  0  0  0  0  0
   44.7964   27.0436  -11.7465 H   0  0  0  0  0  0  0  0  0  0  0  0
   43.2317   27.9260  -11.7465 H   0  0  0  0  0  0  0  0  0  0  0  0
   41.5890   27.5504  -13.3561 H   0  0  0  0  0  0  0  0  0  0  0  0
   38.2366   29.0116  -13.4650 H   0  0  0  0  0  0  0  0  0  0  0  0
   36.0880   30.0189  -14.2382 H   0  0  0  0  0  0  0  0  0  0  0  0
   35.2711   29.5949  -16.5576 H   0  0  0  0  0  0  0  0  0  0  0  0
   37.0350   27.9490  -19.0480 H   0  0  0  0  0  0  0  0  0  0  0  0
   41.4300   24.8390  -17.4720 H   0  0  0  0  0  0  0  0  0  0  0  0
   42.2648   24.7197  -16.5411 H   0  0  0  0  0  0  0  0  0  0  0  0
   44.3026   23.9061  -15.3794 H   0  0  0  0  0  0  0  0  0  0  0  0
   45.5603   25.2942  -12.1305 H   0  0  0  0  0  0  0  0  0  0  0  0
   45.1972   23.6570  -12.8655 H   0  0  0  0  0  0  0  0  0  0  0  0
   46.3700   24.4138  -14.9293 H   0  0  0  0  0  0  0  0  0  0  0  0
   47.6982   24.0487  -12.2243 H   0  0  0  0  0  0  0  0  0  0  0  0
   47.6826   22.9517  -13.6466 H   0  0  0  0  0  0  0  0  0  0  0  0
   48.7351   24.4073  -13.6466 H   0  0  0  0  0  0  0  0  0  0  0  0
   47.2454   26.7398  -13.1594 H   0  0  0  0  0  0  0  0  0  0  0  0
   48.0397   26.2743  -14.7018 H   0  0  0  0  0  0  0  0  0  0  0  0
   46.3282   26.8200  -14.7018 H   0  0  0  0  0  0  0  0  0  0  0  0
  1  2  1  0
  2  3  2  0
  3  4  1  0
  4  5  1  0
  5  6  1  0
  6  7  1  0
  7  8  2  0
  8  9  1  0
  9 10  2  0
 10 11  1  0
 11 12  1  0
 11 13  2  0
 13 14  1  0
 14 15  2  0
 14 16  1  0
 16 17  1  0
  4 18  2  0
 18 19  1  0
 19 20  2  0
 20 21  1  0
 21 22  1  0
 22 23  1  0
 22 24  1  0
 20  2  1  0
 16  5  2  0
 13  7  1  0
  1 25  1  0
  1 26  1  0
  1 27  1  0
  3 28  1  0
  8 29  1  0
  9 30  1  0
 10 31  1  0
 12 32  1  0
 17 33  1  0
 18 34  1  0
 19 35  1  0
 21 36  1  0
 21 37  1  0
 22 38  1  0
 23 39  1  0
 23 40  1  0
 23 41  1  0
 24 42  1  0
 24 43  1  0
 24 44  1  0
M  END
>  <meeko>  (1) 
{"is_sidechain": [false], "free_energy": -7.938, "intermolecular_energy": -9.794, "internal_energy": -0.18}

$$$$
cand_051_out
     RDKit          3D

 44 46  0  0  0  0  0  0  0  0999 V2000
   44.1510   26.5800  -11.5230 C   0  0  0  0  0  0  0  0  0  0  0  0
   43.5590   26.1750  -12.8440 C   0  0  0  0  0  0  0  0  0  0  0  0
   42.3600   26.7850  -13.2610 C   0  0  0  0  0  0  0  0  0  0  0  0
   41.7460   26.4560  -14.4790 C   0  0  0  0  0  0  0  0  0  0  0  0
   40.4740   27.1050  -14.8630 C   0  0  0  0  0  0  0  0  0  0  0  0
   40.0390   26.7320  -16.1300 O   0  0  0  0  0  0  0  0  0  0  0  0
   38.8690   27.2620  -16.6120 C   0  0  0  0  0  0  0  0  0  0  0  0
   38.4770   26.8710  -17.8930 C   0  0  0  0  0  0  0  0  0  0  0  0
   37.2950   27.3720  -18.4430 C   0  0  0  0  0  0  0  0  0  0  0  0
   36.5050   28.2620  -17.7130 C   0  0  0  0  0  0  0  0  0  0  0  0
   36.8990   28.6490  -16.4340 C   0  0  0  0  0  0  0  0  0  0  0  0
   36.0780   29.5230  -15.7740 O   0  0  0  0  0  0  0  0  0  0  0  0
   38.0820   28.1490  -15.8840 C   0  0  0  0  0  0  0  0  0  0  0  0
   38.5310   28.5310  -14.5450 C   0  0  0  0  0  0  0  0  0  0  0  0
   37.8870   29.3030  -13.8380 O   0  0  0  0  0  0  0  0  0  0  0  0
   39.8040   27.9500  -14.0580 C   0  0  0  0  0  0  0  0  0  0  0  0
   40.2120   28.3070  -12.7860 O   0  0  0  0  0  0  0  0  0  0  0  0
   42.3440   25.4790  -15.2790 C   0  0  0  0  0  0  0  0  0  0  0  0
   43.5320   24.8630  -14.8800 C   0  0  0  0  0  0  0  0  0  0  0  0
   44.1570   25.2010  -13.6680 C   0  0  0  0  0  0  0  0  0  0  0  0
   45.4470   24.4930  -13.3030 C   0  0  0  0  0  0  0  0  0  0  0  0
   46.6730   24.9670  -14.1120 C   0  0  0  0  0  0  0  0  0  0  0  0
   47.9330   24.2620  -13.6020 C   0  0  0  0  0  0  0  0  0  0  0  0
   46.8650   26.4830  -14.0350 C   0  0  0  0  0  0  0  0  0  0  0  0
   43.5432   26.1642  -10.7059 H   0  0  0  0  0  0  0  0  0  0  0  0
   45.1786   26.1948  -11.4482 H   0  0  0  0  0  0  0  0  0  0  0  0
   44.1644   27.6774  -11.4482 H   0  0  0  0  0  0  0  0  0  0  0  0
   41.8916   27.5408  -12.6134 H   0  0  0  0  0  0  0  0  0  0  0  0
   39.0982   26.1691  -18.4688 H   0  0  0  0  0  0  0  0  0  0  0  0
   36.9860   27.0648  -19.4530 H   0  0  0  0  0  0  0  0  0  0  0  0
   35.5742   28.6565  -18.1464 H   0  0  0  0  0  0  0  0  0  0  0  0
   35.5830   30.1560  -16.2550 H   0  0  0  0  0  0  0  0  0  0  0  0
   40.7720   29.0480  -12.6650 H   0  0  0  0  0  0  0  0  0  0  0  0
   41.8748   25.1925  -16.2317 H   0  0  0  0  0  0  0  0  0  0  0  0
   43.9871   24.0986  -15.5269 H   0  0  0  0  0  0  0  0  0  0  0  0
   45.6479   24.6682  -12.2358 H   0  0  0  0  0  0  0  0  0  0  0  0
   45.3031   23.4279  -13.5373 H   0  0  0  0  0  0  0  0  0  0  0  0
   46.4941   24.7077  -15.1659 H   0  0  0  0  0  0  0  0  0  0  0  0
   47.9333   24.2618  -12.5020 H   0  0  0  0  0  0  0  0  0  0  0  0
   47.9469   23.2251  -13.9688 H   0  0  0  0  0  0  0  0  0  0  0  0
   48.8240   24.7926  -13.9688 H   0  0  0  0  0  0  0  0  0  0  0  0
   46.9045   26.7945  -12.9808 H   0  0  0  0  0  0  0  0  0  0  0  0
   47.8053   26.7593  -14.5344 H   0  0  0  0  0  0  0  0  0  0  0  0
   46.0233   26.9850  -14.5344 H   0  0  0  0  0  0  0  0  0  0  0  0
  1  2  1  0
  2  3  2  0
  3  4  1  0
  4  5  1  0
  5  6  1  0
  6  7  1  0
  7  8  2  0
  8  9  1  0
  9 10  2  0
 10 11  1  0
 11 12  1  0
 11 13  2  0
 13 14  1  0
 14 15  2  0
 14 16  1  0
 16 17  1  0
  4 18  2  0
 18 19  1  0
 19 20  2  0
 20 21  1  0
 21 22  1  0
 22 23  1  0
 22 24  1  0
 20  2  1  0
 16  5  2  0
 13  7  1  0
  1 25  1  0
  1 26  1  0
  1 27  1  0
  3 28  1  0
  8 29  1  0
  9 30  1  0
 10 31  1  0
 12 32  1  0
 17 33  1  0
 18 34  1  0
 19 35  1  0
 21 36  1  0
 21 37  1  0
 22 38  1  0
 23 39  1  0
 23 40  1  0
 23 41  1  0
 24 42  1  0
 24 43  1  0
 24 44  1  0
M  END
>  <meeko>  (2) 
{"is_sidechain": [false], "free_energy": -7.282, "intermolecular_energy": -9.126, "internal_energy": -0.039}

$$$$
cand_051_out
     RDKit          3D

 44 46  0  0  0  0  0  0  0  0999 V2000
   43.9320   24.3210  -14.8830 C   0  0  0  0  0  0  0  0  0  0  0  0
   43.2100   25.4120  -14.1410 C   0  0  0  0  0  0  0  0  0  0  0  0
   42.0100   25.9140  -14.6810 C   0  0  0  0  0  0  0  0  0  0  0  0
   41.2830   26.9340  -14.0480 C   0  0  0  0  0  0  0  0  0  0  0  0
   40.0410   27.4470  -14.6660 C   0  0  0  0  0  0  0  0  0  0  0  0
   39.7920   26.8910  -15.9160 O   0  0  0  0  0  0  0  0  0  0  0  0
   38.6690   27.2790  -16.6020 C   0  0  0  0  0  0  0  0  0  0  0  0
   38.4650   26.7070  -17.8590 C   0  0  0  0  0  0  0  0  0  0  0  0
   37.3400   27.0580  -18.6090 C   0  0  0  0  0  0  0  0  0  0  0  0
   36.4210   27.9790  -18.1050 C   0  0  0  0  0  0  0  0  0  0  0  0
   36.6270   28.5480  -16.8500 C   0  0  0  0  0  0  0  0  0  0  0  0
   35.6870   29.4420  -16.4160 O   0  0  0  0  0  0  0  0  0  0  0  0
   37.7530   28.1980  -16.0990 C   0  0  0  0  0  0  0  0  0  0  0  0
   38.0070   28.7720  -14.7780 C   0  0  0  0  0  0  0  0  0  0  0  0
   37.2400   29.5830  -14.2620 O   0  0  0  0  0  0  0  0  0  0  0  0
   39.2320   28.3400  -14.0670 C   0  0  0  0  0  0  0  0  0  0  0  0
   39.4550   28.8790  -12.8130 O   0  0  0  0  0  0  0  0  0  0  0  0
   41.7880   27.4690  -12.8610 C   0  0  0  0  0  0  0  0  0  0  0  0
   42.9780   26.9830  -12.3120 C   0  0  0  0  0  0  0  0  0  0  0  0
   43.7000   25.9520  -12.9360 C   0  0  0  0  0  0  0  0  0  0  0  0
   44.9810   25.4740  -12.2800 C   0  0  0  0  0  0  0  0  0  0  0  0
   46.2640   25.9460  -12.9930 C   0  0  0  0  0  0  0  0  0  0  0  0
   45.9300   27.0860  -13.9590 C   0  0  0  0  0  0  0  0  0  0  0  0
   46.9530   24.8110  -13.7550 C   0  0  0  0  0  0  0  0  0  0  0  0
   44.3904   23.6284  -14.1618 H   0  0  0  0  0  0  0  0  0  0  0  0
   43.2178   23.7727  -15.5149 H   0  0  0  0  0  0  0  0  0  0  0  0
   44.7158   24.7640  -15.5149 H   0  0  0  0  0  0  0  0  0  0  0  0
   41.6321   25.4949  -15.6252 H   0  0  0  0  0  0  0  0  0  0  0  0
   39.1888   25.9812  -18.2581 H   0  0  0  0  0  0  0  0  0  0  0  0
   37.1782   26.6072  -19.5993 H   0  0  0  0  0  0  0  0  0  0  0  0
   35.5360   28.2552  -18.6970 H   0  0  0  0  0  0  0  0  0  0  0  0
   34.9610   29.6630  -16.9650 H   0  0  0  0  0  0  0  0  0  0  0  0
   39.1610   28.4240  -12.0490 H   0  0  0  0  0  0  0  0  0  0  0  0
   41.2446   28.2798  -12.3537 H   0  0  0  0  0  0  0  0  0  0  0  0
   43.3562   27.4158  -11.3741 H   0  0  0  0  0  0  0  0  0  0  0  0
   45.0014   25.8497  -11.2463 H   0  0  0  0  0  0  0  0  0  0  0  0
   44.9741   24.3752  -12.3310 H   0  0  0  0  0  0  0  0  0  0  0  0
   46.9615   26.2981  -12.2187 H   0  0  0  0  0  0  0  0  0  0  0  0
   45.6660   27.9869  -13.3857 H   0  0  0  0  0  0  0  0  0  0  0  0
   46.8039   27.2976  -14.5927 H   0  0  0  0  0  0  0  0  0  0  0  0
   45.0801   26.7925  -14.5927 H   0  0  0  0  0  0  0  0  0  0  0  0
   47.3859   24.0979  -13.0380 H   0  0  0  0  0  0  0  0  0  0  0  0
   46.2163   24.2937  -14.3873 H   0  0  0  0  0  0  0  0  0  0  0  0
   47.7518   25.2259  -14.3873 H   0  0  0  0  0  0  0  0  0  0  0  0
  1  2  1  0
  2  3  2  0
  3  4  1  0
  4  5  1  0
  5  6  1  0
  6  7  1  0
  7  8  2  0
  8  9  1  0
  9 10  2  0
 10 11  1  0
 11 12  1  0
 11 13  2  0
 13 14  1  0
 14 15  2  0
 14 16  1  0
 16 17  1  0
  4 18  2  0
 18 19  1  0
 19 20  2  0
 20 21  1  0
 21 22  1  0
 22 23  1  0
 22 24  1  0
 20  2  1  0
 16  5  2  0
 13  7  1  0
  1 25  1  0
  1 26  1  0
  1 27  1  0
  3 28  1  0
  8 29  1  0
  9 30  1  0
 10 31  1  0
 12 32  1  0
 17 33  1  0
 18 34  1  0
 19 35  1  0
 21 36  1  0
 21 37  1  0
 22 38  1  0
 23 39  1  0
 23 40  1  0
 23 41  1  0
 24 42  1  0
 24 43  1  0
 24 44  1  0
M  END
>  <meeko>  (3) 
{"is_sidechain": [false], "free_energy": -5.421, "intermolecular_energy": -7.451, "internal_energy": 0.583}

$$$$
