cand_018_out
     RDKit          3D

 44 47  0  0  0  0  0  0  0  0999 V2000
   44.5100   25.8460  -11.3670 C   0  0  0  0  0  0  0  0  0  0  0  0
   43.3340   26.2920  -12.1940 C   0  0  0  0  0  0  0  0  0  0  0  0
   42.1650   26.7250  -11.5490 C   0  0  0  0  0  0  0  0  0  0  0  0
   41.0590   27.1470  -12.2880 C   0  0  0  0  0  0  0  0  0  0  0  0
   41.1000   27.1590  -13.6860 C   0  0  0  0  0  0  0  0  0  0  0  0
   39.9130   27.5930  -14.4540 C   0  0  0  0  0  0  0  0  0  0  0  0
   39.7940   26.9430  -15.6770 O   0  0  0  0  0  0  0  0  0  0  0  0
   38.7360   27.2520  -16.4920 C   0  0  0  0  0  0  0  0  0  0  0  0
   38.6650   26.5860  -17.7170 C   0  0  0  0  0  0  0  0  0  0  0  0
   37.6110   26.8520  -18.5940 C   0  0  0  0  0  0  0  0  0  0  0  0
   36.6290   27.7820  -18.2460 C   0  0  0  0  0  0  0  0  0  0  0  0
   36.7020   28.4430  -17.0240 C   0  0  0  0  0  0  0  0  0  0  0  0
   35.7070   29.3410  -16.7460 O   0  0  0  0  0  0  0  0  0  0  0  0
   37.7570   28.1770  -16.1460 C   0  0  0  0  0  0  0  0  0  0  0  0
   37.8720   28.8510  -14.8520 C   0  0  0  0  0  0  0  0  0  0  0  0
   37.0440   29.6760  -14.4720 O   0  0  0  0  0  0  0  0  0  0  0  0
   39.0330   28.5040  -14.0000 C   0  0  0  0  0  0  0  0  0  0  0  0
   39.1230   29.1370  -12.7730 O   0  0  0  0  0  0  0  0  0  0  0  0
   42.2700   26.7200  -14.3260 C   0  0  0  0  0  0  0  0  0  0  0  0
   43.3950   26.2840  -13.6010 C   0  0  0  0  0  0  0  0  0  0  0  0
   44.5820   25.8820  -14.2370 N   0  0  0  0  0  0  0  0  0  0  0  0
   45.0260   24.5450  -13.7940 C   0  0  0  0  0  0  0  0  0  0  0  0
   46.5440   24.6000  -13.9090 C   0  0  0  0  0  0  0  0  0  0  0  0
   46.8460   26.0310  -13.5070 C   0  0  0  0  0  0  0  0  0  0  0  0
   45.7230   26.8120  -14.1840 C   0  0  0  0  0  0  0  0  0  0  0  0
   44.2637   25.9394  -10.2990 H   0  0  0  0  0  0  0  0  0  0  0  0
   44.7444   24.7966  -11.5988 H   0  0  0  0  0  0  0  0  0  0  0  0
   45.3813   26.4761  -11.5988 H   0  0  0  0  0  0  0  0  0  0  0  0
   42.1202   26.7318  -10.4499 H   0  0  0  0  0  0  0  0  0  0  0  0
   40.1470   27.4730  -11.7665 H   0  0  0  0  0  0  0  0  0  0  0  0
   39.4380   25.8529  -17.9910 H   0  0  0  0  0  0  0  0  0  0  0  0
   37.5543   26.3284  -19.5598 H   0  0  0  0  0  0  0  0  0  0  0  0
   35.7991   27.9916  -18.9370 H   0  0  0  0  0  0  0  0  0  0  0  0
   35.5870   29.6500  -15.8690 H   0  0  0  0  0  0  0  0  0  0  0  0
   38.8980   28.6750  -11.9900 H   0  0  0  0  0  0  0  0  0  0  0  0
   42.3086   26.7167  -15.4253 H   0  0  0  0  0  0  0  0  0  0  0  0
   44.7198   24.3566  -12.7544 H   0  0  0  0  0  0  0  0  0  0  0  0
   44.5865   23.7343  -14.3936 H   0  0  0  0  0  0  0  0  0  0  0  0
   47.0218   23.8843  -13.2238 H   0  0  0  0  0  0  0  0  0  0  0  0
   46.9204   24.3339  -14.9078 H   0  0  0  0  0  0  0  0  0  0  0  0
   46.8110   26.1521  -12.4143 H   0  0  0  0  0  0  0  0  0  0  0  0
   47.8512   26.3654  -13.8031 H   0  0  0  0  0  0  0  0  0  0  0  0
   45.4655   27.7051  -13.5957 H   0  0  0  0  0  0  0  0  0  0  0  0
   46.0130   27.1638  -15.1851 H   0  0  0  0  0  0  0  0  0  0  0  0
  1  2  1  0
  2  3  2  0
  3  4  1  0
  4  5  2  0
  5  6  1  0
  6  7  1  0
  7  8  1  0
  8  9  2  0
  9 10  1  0
 10 11  2  0
 11 12  1  0
 12 13  1  0
 12 14  2  0
 14 15  1  0
 15 16  2  0
 15 17  1  0
 17 18  1  0
  5 19  1  0
 19 20  2  0
 20 21  1  0
 21 22  1  0
 22 23  1  0
 23 24  1  0
 24 25  1  0
 20  2  1  0
 25 21  1  0
 17  6  2  0
 14  8  1  0
  1 26  1  0
  1 27  1  0
  1 28  1  0
  3 29  1  0
  4 30  1  0
  9 31  1  0
 10 32  1  0
 11 33  1  0
 13 34  1  0
 18 35  1  0
 19 36  1  0
 22 37  1  0
 22 38  1  0
 23 39  1  0
 23 40  1  0
 24 41  1  0
 24 42  1  0
 25 43  1  0
 25 44  1  0
M  END
>  <meeko>  (1) 
{"is_sidechain": [false], "free_energy": -6.877, "intermolecular_energy": -8.083, "internal_energy": 1.299}

$$$$
cand_018_out
     RDKit          3D

 44 47  0  0  0  0  0  0  0  0999 V2000
   44.6730   25.9640  -11.4430 C   0  0  0  0  0  0  0  0  0  0  0  0
   43.5690   26.2370  -12.4290 C   0  0  0  0  0  0  0  0  0  0  0  0
   42.3400   26.7320  -11.9650 C   0  0  0  0  0  0  0  0  0  0  0  0
   41.2990   26.9990  -12.8550 C   0  0  0  0  0  0  0  0  0  0  0  0
   41.4640   26.7900  -14.2280 C   0  0  0  0  0  0  0  0  0  0  0  0
   40.3450   27.0620  -15.1540 C   0  0  0  0  0  0  0  0  0  0  0  0
   39.3970   27.9250  -14.6150 O   0  0  0  0  0  0  0  0  0  0  0  0
   38.3020   28.2630  -15.3700 C   0  0  0  0  0  0  0  0  0  0  0  0
   37.3690   29.1190  -14.7830 C   0  0  0  0  0  0  0  0  0  0  0  0
   36.2330   29.5040  -15.4970 C   0  0  0  0  0  0  0  0  0  0  0  0
   36.0300   29.0350  -16.7970 C   0  0  0  0  0  0  0  0  0  0  0  0
   36.9630   28.1820  -17.3790 C   0  0  0  0  0  0  0  0  0  0  0  0
   36.7040   27.7600  -18.6550 O   0  0  0  0  0  0  0  0  0  0  0  0
   38.1000   27.7960  -16.6640 C   0  0  0  0  0  0  0  0  0  0  0  0
   39.1050   26.9000  -17.2380 C   0  0  0  0  0  0  0  0  0  0  0  0
   39.0010   26.4510  -18.3780 O   0  0  0  0  0  0  0  0  0  0  0  0
   40.2700   26.5460  -16.3940 C   0  0  0  0  0  0  0  0  0  0  0  0
   41.2190   25.7090  -16.9530 O   0  0  0  0  0  0  0  0  0  0  0  0
   42.6940   26.2900  -14.6860 C   0  0  0  0  0  0  0  0  0  0  0  0
   43.7560   26.0080  -13.8060 C   0  0  0  0  0  0  0  0  0  0  0  0
   45.0020   25.5460  -14.2650 N   0  0  0  0  0  0  0  0  0  0  0  0
   45.4900   24.3930  -13.4820 C   0  0  0  0  0  0  0  0  0  0  0  0
   47.0070   24.5230  -13.5350 C   0  0  0  0  0  0  0  0  0  0  0  0
   47.2030   26.0270  -13.4890 C   0  0  0  0  0  0  0  0  0  0  0  0
   46.0840   26.5380  -14.3920 C   0  0  0  0  0  0  0  0  0  0  0  0
   44.2824   26.0606  -10.4192 H   0  0  0  0  0  0  0  0  0  0  0  0
   45.0561   24.9441  -11.5946 H   0  0  0  0  0  0  0  0  0  0  0  0
   45.4873   26.6878  -11.5946 H   0  0  0  0  0  0  0  0  0  0  0  0
   42.1962   26.9111  -10.8893 H   0  0  0  0  0  0  0  0  0  0  0  0
   40.3394   27.3775  -12.4731 H   0  0  0  0  0  0  0  0  0  0  0  0
   37.5285   29.4896  -13.7597 H   0  0  0  0  0  0  0  0  0  0  0  0
   35.4964   30.1779  -15.0351 H   0  0  0  0  0  0  0  0  0  0  0  0
   35.1349   29.3391  -17.3594 H   0  0  0  0  0  0  0  0  0  0  0  0
   35.8490   27.8760  -19.0210 H   0  0  0  0  0  0  0  0  0  0  0  0
   41.7370   25.1550  -16.4040 H   0  0  0  0  0  0  0  0  0  0  0  0
   42.8314   26.1137  -15.7631 H   0  0  0  0  0  0  0  0  0  0  0  0
   45.1297   24.4453  -12.4440 H   0  0  0  0  0  0  0  0  0  0  0  0
   45.1346   23.4313  -13.8805 H   0  0  0  0  0  0  0  0  0  0  0  0
   47.4795   24.0328  -12.6710 H   0  0  0  0  0  0  0  0  0  0  0  0
   47.4600   24.0460  -14.4166 H   0  0  0  0  0  0  0  0  0  0  0  0
   47.0921   26.4104  -12.4640 H   0  0  0  0  0  0  0  0  0  0  0  0
   48.2049   26.3470  -13.8112 H   0  0  0  0  0  0  0  0  0  0  0  0
   45.7406   27.5283  -14.0581 H   0  0  0  0  0  0  0  0  0  0  0  0
   46.4166   26.6526  -15.4342 H   0  0  0  0  0  0  0  0  0  0  0  0
  1  2  1  0
  2  3  2  0
  3  4  1  0
  4  5  2  0
  5  6  1  0
  6  7  1  0
  7  8  1  0
  8  9  2  0
  9 10  1  0
 10 11  2  0
 11 12  1  0
 12 13  1  0
 12 14  2  0
 14 15  1  0
 15 16  2  0
 15 17  1  0
 17 18  1  0
  5 19  1  0
 19 20  2  0
 20 21  1  0
 21 22  1  0
 22 23  1  0
 23 24  1  0
 24 25  1  0
 20  2  1  0
 25 21  1  0
 17  6  2  0
 14  8  1  0
  1 26  1  0
  1 27  1  0
  1 28  1  0
  3 29  1  0
  4 30  1  0
  9 31  1  0
 10 32  1  0
 11 33  1  0
 13 34  1  0
 18 35  1  0
 19 36  1  0
 22 37  1  0
 22 38  1  0
 23 39  1  0
 23 40  1  0
 24 41  1  0
 24 42  1  0
 25 43  1  0
 25 44  1  0
M  END
>  <meeko>  (2) 
{"is_sidechain": [false], "free_energy": -6.546, "intermolecular_energy": -7.785, "internal_energy": 1.39}

$$$$
cand_018_out
     RDKit          3D

 44 47  0  0  0  0  0  0  0  0999 V2000
   47.6270   24.4040  -13.5880 C   0  0  0  0  0  0  0  0  0  0  0  0
   46.2410   24.9540  -13.7890 C   0  0  0  0  0  0  0  0  0  0  0  0
   45.1340   24.1060  -13.6240 C   0  0  0  0  0  0  0  0  0  0  0  0
   43.8370   24.5870  -13.8010 C   0  0  0  0  0  0  0  0  0  0  0  0
   43.6130   25.9280  -14.1320 C   0  0  0  0  0  0  0  0  0  0  0  0
   42.2320   26.4160  -14.3320 C   0  0  0  0  0  0  0  0  0  0  0  0
   41.7570   26.1790  -15.6170 O   0  0  0  0  0  0  0  0  0  0  0  0
   40.4860   26.5830  -15.9390 C   0  0  0  0  0  0  0  0  0  0  0  0
   40.0560   26.3400  -17.2450 C   0  0  0  0  0  0  0  0  0  0  0  0
   38.7730   26.7230  -17.6380 C   0  0  0  0  0  0  0  0  0  0  0  0
   37.9190   27.3490  -16.7270 C   0  0  0  0  0  0  0  0  0  0  0  0
   38.3500   27.5900  -15.4250 C   0  0  0  0  0  0  0  0  0  0  0  0
   37.4640   28.2060  -14.5840 O   0  0  0  0  0  0  0  0  0  0  0  0
   39.6360   27.2060  -15.0320 C   0  0  0  0  0  0  0  0  0  0  0  0
   40.1290   27.4420  -13.6740 C   0  0  0  0  0  0  0  0  0  0  0  0
   39.4350   27.9810  -12.8140 O   0  0  0  0  0  0  0  0  0  0  0  0
   41.5090   27.0050  -13.3610 C   0  0  0  0  0  0  0  0  0  0  0  0
   41.9590   27.2200  -12.0710 O   0  0  0  0  0  0  0  0  0  0  0  0
   44.7230   26.7700  -14.3000 C   0  0  0  0  0  0  0  0  0  0  0  0
   46.0420   26.3060  -14.1330 C   0  0  0  0  0  0  0  0  0  0  0  0
   47.1540   27.1550  -14.2620 N   0  0  0  0  0  0  0  0  0  0  0  0
   48.0900   26.6930  -15.3070 C   0  0  0  0  0  0  0  0  0  0  0  0
   49.4540   27.1620  -14.8180 C   0  0  0  0  0  0  0  0  0  0  0  0
   49.3350   26.9880  -13.3150 C   0  0  0  0  0  0  0  0  0  0  0  0
   47.9120   27.4620  -13.0360 C   0  0  0  0  0  0  0  0  0  0  0  0
   47.8360   24.3211  -12.5112 H   0  0  0  0  0  0  0  0  0  0  0  0
   47.6979   23.4096  -14.0529 H   0  0  0  0  0  0  0  0  0  0  0  0
   48.3604   25.0792  -14.0529 H   0  0  0  0  0  0  0  0  0  0  0  0
   45.2914   23.0517  -13.3524 H   0  0  0  0  0  0  0  0  0  0  0  0
   42.9820   23.9058  -13.6793 H   0  0  0  0  0  0  0  0  0  0  0  0
   40.7278   25.8472  -17.9632 H   0  0  0  0  0  0  0  0  0  0  0  0
   38.4337   26.5317  -18.6667 H   0  0  0  0  0  0  0  0  0  0  0  0
   36.9079   27.6510  -17.0375 H   0  0  0  0  0  0  0  0  0  0  0  0
   37.5690   28.1300  -13.6560 H   0  0  0  0  0  0  0  0  0  0  0  0
   41.4580   27.7510  -11.4830 H   0  0  0  0  0  0  0  0  0  0  0  0
   44.5579   27.8235  -14.5701 H   0  0  0  0  0  0  0  0  0  0  0  0
   48.0635   25.5971  -15.3981 H   0  0  0  0  0  0  0  0  0  0  0  0
   47.8397   27.0883  -16.3025 H   0  0  0  0  0  0  0  0  0  0  0  0
   50.2610   26.5375  -15.2288 H   0  0  0  0  0  0  0  0  0  0  0  0
   49.7032   28.1886  -15.1246 H   0  0  0  0  0  0  0  0  0  0  0  0
   49.4665   25.9349  -13.0257 H   0  0  0  0  0  0  0  0  0  0  0  0
   50.0990   27.5411  -12.7490 H   0  0  0  0  0  0  0  0  0  0  0  0
   47.4880   26.9236  -12.1756 H   0  0  0  0  0  0  0  0  0  0  0  0
   47.8770   28.5333  -12.7889 H   0  0  0  0  0  0  0  0  0  0  0  0
  1  2  1  0
  2  3  2  0
  3  4  1  0
  4  5  2  0
  5  6  1  0
  6  7  1  0
  7  8  1  0
  8  9  2  0
  9 10  1  0
 10 11  2  0
 11 12  1  0
 12 13  1  0
 12 14  2  0
 14 15  1  0
 15 16  2  0
 15 17  1  0
 17 18  1  0
  5 19  1  0
 19 20  2  0
 20 21  1  0
 21 22  1  0
 22 23  1  0
 23 24  1  0
 24 25  1  0
 20  2  1  0
 25 21  1  0
 17  6  2  0
 14  8  1  0
  1 26  1  0
  1 27  1  0
  1 28  1  0
  3 29  1  0
  4 30  1  0
  9 31  1  0
 10 32  1  0
 11 33  1  0
 13 34  1  0
 18 35  1  0
 19 36  1  0
 22 37  1  0
 22 38  1  0
 23 39  1  0
 23 40  1  0
 24 41  1  0
 24 42  1  0
 25 43  1  0
 25 44  1  0
M  END
>  <meeko>  (3) 
{"is_sidechain": [false], "free_energy": -5.667, "intermolecular_energy": -6.137, "internal_energy": 0.775}

$$$$
cand_018_out
     RDKit          3D

 44 47  0  0  0  0  0  0  0  0999 V2000
   43.1250   26.5100  -11.7310 C   0  0  0  0  0  0  0  0  0  0  0  0
   42.1170   26.6670  -12.8380 C   0  0  0  0  0  0  0  0  0  0  0  0
   40.8040   27.0510  -12.5240 C   0  0  0  0  0  0  0  0  0  0  0  0
   39.8490   27.2070  -13.5290 C   0  0  0  0  0  0  0  0  0  0  0  0
   40.1860   26.9980  -14.8710 C   0  0  0  0  0  0  0  0  0  0  0  0
   39.1570   27.1530  -15.9210 C   0  0  0  0  0  0  0  0  0  0  0  0
   38.3250   28.2460  -15.7040 O   0  0  0  0  0  0  0  0  0  0  0  0
   37.3230   28.5060  -16.6040 C   0  0  0  0  0  0  0  0  0  0  0  0
   36.5030   29.6030  -16.3380 C   0  0  0  0  0  0  0  0  0  0  0  0
   35.4660   29.9250  -17.2150 C   0  0  0  0  0  0  0  0  0  0  0  0
   35.2490   29.1520  -18.3580 C   0  0  0  0  0  0  0  0  0  0  0  0
   36.0700   28.0590  -18.6210 C   0  0  0  0  0  0  0  0  0  0  0  0
   35.8030   27.3450  -19.7570 O   0  0  0  0  0  0  0  0  0  0  0  0
   37.1080   27.7360  -17.7420 C   0  0  0  0  0  0  0  0  0  0  0  0
   37.9930   26.5950  -17.9800 C   0  0  0  0  0  0  0  0  0  0  0  0
   37.8710   25.8720  -18.9670 O   0  0  0  0  0  0  0  0  0  0  0  0
   39.0570   26.3340  -16.9840 C   0  0  0  0  0  0  0  0  0  0  0  0
   39.8960   25.2610  -17.2280 O   0  0  0  0  0  0  0  0  0  0  0  0
   41.5000   26.6100  -15.1790 C   0  0  0  0  0  0  0  0  0  0  0  0
   42.4780   26.4400  -14.1810 C   0  0  0  0  0  0  0  0  0  0  0  0
   43.8040   26.0900  -14.4880 N   0  0  0  0  0  0  0  0  0  0  0  0
   44.1200   24.7020  -14.0940 C   0  0  0  0  0  0  0  0  0  0  0  0
   45.6060   24.7410  -13.7580 C   0  0  0  0  0  0  0  0  0  0  0  0
   45.7570   26.1110  -13.1230 C   0  0  0  0  0  0  0  0  0  0  0  0
   44.8670   26.9860  -14.0010 C   0  0  0  0  0  0  0  0  0  0  0  0
   42.6170   26.5891  -10.7586 H   0  0  0  0  0  0  0  0  0  0  0  0
   43.6091   25.5256  -11.8128 H   0  0  0  0  0  0  0  0  0  0  0  0
   43.8855   27.3005  -11.8128 H   0  0  0  0  0  0  0  0  0  0  0  0
   40.5252   27.2307  -11.4752 H   0  0  0  0  0  0  0  0  0  0  0  0
   38.8215   27.4970  -13.2640 H   0  0  0  0  0  0  0  0  0  0  0  0
   36.6734   30.2131  -15.4387 H   0  0  0  0  0  0  0  0  0  0  0  0
   34.8184   30.7892  -17.0056 H   0  0  0  0  0  0  0  0  0  0  0  0
   34.4314   29.4063  -19.0486 H   0  0  0  0  0  0  0  0  0  0  0  0
   35.9750   27.7220  -20.5980 H   0  0  0  0  0  0  0  0  0  0  0  0
   39.5470   24.4640  -17.5750 H   0  0  0  0  0  0  0  0  0  0  0  0
   41.7728   26.4339  -16.2300 H   0  0  0  0  0  0  0  0  0  0  0  0
   43.5289   24.4008  -13.2166 H   0  0  0  0  0  0  0  0  0  0  0  0
   43.8846   23.9744  -14.8846 H   0  0  0  0  0  0  0  0  0  0  0  0
   45.8759   23.9423  -13.0515 H   0  0  0  0  0  0  0  0  0  0  0  0
   46.2592   24.5844  -14.6291 H   0  0  0  0  0  0  0  0  0  0  0  0
   45.4049   26.1064  -12.0809 H   0  0  0  0  0  0  0  0  0  0  0  0
   46.7998   26.4578  -13.0747 H   0  0  0  0  0  0  0  0  0  0  0  0
   44.4372   27.8108  -13.4137 H   0  0  0  0  0  0  0  0  0  0  0  0
   45.4289   27.4446  -14.8280 H   0  0  0  0  0  0  0  0  0  0  0  0
  1  2  1  0
  2  3  2  0
  3  4  1  0
  4  5  2  0
  5  6  1  0
  6  7  1  0
  7  8  1  0
  8  9  2  0
  9 10  1  0
 10 11  2  0
 11 12  1  0
 12 13  1  0
 12 14  2  0
 14 15  1  0
 15 16  2  0
 15 17  1  0
 17 18  1  0
  5 19  1  0
 19 20  2  0
 20 21  1  0
 21 22  1  0
 22 23  1  0
 23 24  1  0
 24 25  1  0
 20  2  1  0
 25 21  1  0
 17  6  2  0
 14  8  1  0
  1 26  1  0
  1 27  1  0
  1 28  1  0
  3 29  1  0
  4 30  1  0
  9 31  1  0
 10 32  1  0
 11 33  1  0
 13 34  1  0
 18 35  1  0
 19 36  1  0
 22 37  1  0
 22 38  1  0
 23 39  1  0
 23 40  1  0
 24 41  1  0
 24 42  1  0
 25 43  1  0
 25 44  1  0
M  END
>  <meeko>  (4) 
{"is_sidechain": [false], "free_energy": -5.629, "intermolecular_energy": -6.568, "internal_energy": 1.25}

$$$$
cand_018_out
     RDKit          3D

 44 47  0  0  0  0  0  0  0  0999 V2000
   45.9930   24.1240  -13.8660 C   0  0  0  0  0  0  0  0  0  0  0  0
   44.7040   24.8790  -14.0520 C   0  0  0  0  0  0  0  0  0  0  0  0
   43.5010   24.1670  -14.1720 C   0  0  0  0  0  0  0  0  0  0  0  0
   42.2900   24.8390  -14.3420 C   0  0  0  0  0  0  0  0  0  0  0  0
   42.2510   26.2360  -14.3830 C   0  0  0  0  0  0  0  0  0  0  0  0
   40.9610   26.9310  -14.5810 C   0  0  0  0  0  0  0  0  0  0  0  0
   40.4210   26.7160  -15.8450 O   0  0  0  0  0  0  0  0  0  0  0  0
   39.2230   27.3040  -16.1630 C   0  0  0  0  0  0  0  0  0  0  0  0
   38.7270   27.0740  -17.4470 C   0  0  0  0  0  0  0  0  0  0  0  0
   37.5110   27.6410  -17.8350 C   0  0  0  0  0  0  0  0  0  0  0  0
   36.7920   28.4360  -16.9400 C   0  0  0  0  0  0  0  0  0  0  0  0
   37.2900   28.6630  -15.6600 C   0  0  0  0  0  0  0  0  0  0  0  0
   36.5350   29.4510  -14.8340 O   0  0  0  0  0  0  0  0  0  0  0  0
   38.5070   28.0960  -15.2720 C   0  0  0  0  0  0  0  0  0  0  0  0
   39.0660   28.3100  -13.9370 C   0  0  0  0  0  0  0  0  0  0  0  0
   38.4900   28.9920  -13.0910 O   0  0  0  0  0  0  0  0  0  0  0  0
   40.3670   27.6710  -13.6280 C   0  0  0  0  0  0  0  0  0  0  0  0
   40.8780   27.8700  -12.3580 O   0  0  0  0  0  0  0  0  0  0  0  0
   43.4580   26.9440  -14.2680 C   0  0  0  0  0  0  0  0  0  0  0  0
   44.6920   26.2870  -14.1020 C   0  0  0  0  0  0  0  0  0  0  0  0
   45.8980   26.9930  -13.9450 N   0  0  0  0  0  0  0  0  0  0  0  0
   46.9040   26.6050  -14.9540 C   0  0  0  0  0  0  0  0  0  0  0  0
   48.2370   26.7970  -14.2410 C   0  0  0  0  0  0  0  0  0  0  0  0
   47.9060   26.3770  -12.8210 C   0  0  0  0  0  0  0  0  0  0  0  0
   46.5190   26.9770  -12.6100 C   0  0  0  0  0  0  0  0  0  0  0  0
   46.1964   24.0049  -12.7916 H   0  0  0  0  0  0  0  0  0  0  0  0
   45.9083   23.1327  -14.3353 H   0  0  0  0  0  0  0  0  0  0  0  0
   46.8162   24.6827  -14.3353 H   0  0  0  0  0  0  0  0  0  0  0  0
   43.5126   23.0678  -14.1317 H   0  0  0  0  0  0  0  0  0  0  0  0
   41.3576   24.2645  -14.4447 H   0  0  0  0  0  0  0  0  0  0  0  0
   39.2927   26.4473  -18.1522 H   0  0  0  0  0  0  0  0  0  0  0  0
   37.1191   27.4611  -18.8470 H   0  0  0  0  0  0  0  0  0  0  0  0
   35.8341   28.8820  -17.2458 H   0  0  0  0  0  0  0  0  0  0  0  0
   35.8940   30.0300  -15.1970 H   0  0  0  0  0  0  0  0  0  0  0  0
   41.7680   28.1420  -12.2480 H   0  0  0  0  0  0  0  0  0  0  0  0
   43.4389   28.0431  -14.3088 H   0  0  0  0  0  0  0  0  0  0  0  0
   46.7700   25.5558  -15.2559 H   0  0  0  0  0  0  0  0  0  0  0  0
   46.8286   27.1996  -15.8764 H   0  0  0  0  0  0  0  0  0  0  0  0
   49.0173   26.1546  -14.6750 H   0  0  0  0  0  0  0  0  0  0  0  0
   48.6345   27.8198  -14.3171 H   0  0  0  0  0  0  0  0  0  0  0  0
   47.8831   25.2813  -12.7263 H   0  0  0  0  0  0  0  0  0  0  0  0
   48.6461   26.7161  -12.0812 H   0  0  0  0  0  0  0  0  0  0  0  0
   45.9310   26.3556  -11.9185 H   0  0  0  0  0  0  0  0  0  0  0  0
   46.5692   27.9830  -12.1679 H   0  0  0  0  0  0  0  0  0  0  0  0
  1  2  1  0
  2  3  2  0
  3  4  1  0
  4  5  2  0
  5  6  1  0
  6  7  1  0
  7  8  1  0
  8  9  2  0
  9 10  1  0
 10 11  2  0
 11 12  1  0
 12 13  1  0
 12 14  2  0
 14 15  1  0
 15 16  2  0
 15 17  1  0
 17 18  1  0
  5 19  1  0
 19 20  2  0
 20 21  1  0
 21 22  1  0
 22 23  1  0
 23 24  1  0
 24 25  1  0
 20  2  1  0
 25 21  1  0
 17  6  2  0
 14  8  1  0
  1 26  1  0
  1 27  1  0
  1 28  1  0
  3 29  1  0
  4 30  1  0
  9 31  1  0
 10 32  1  0
 11 33  1  0
 13 34  1  0
 18 35  1  0
 19 36  1  0
 22 37  1  0
 22 38  1  0
 23 39  1  0
 23 40  1  0
 24 41  1  0
 24 42  1  0
 25 43  1  0
 25 44  1  0
M  END
>  <meeko>  (5) 
{"is_sidechain": [false], "free_energy": -5.52, "intermolecular_energy": -6.028, "internal_energy": 0.839}

$$$$
cand_018_out
     RDKit          3D

 44 47  0  0  0  0  0  0  0  0999 V2000
   45.7100   24.1430  -13.3680 C   0  0  0  0  0  0  0  0  0  0  0  0
   44.4730   24.7780  -13.9450 C   0  0  0  0  0  0  0  0  0  0  0  0
   43.3220   23.9960  -14.1310 C   0  0  0  0  0  0  0  0  0  0  0  0
   42.1590   24.5570  -14.6610 C   0  0  0  0  0  0  0  0  0  0  0  0
   42.1150   25.9120  -15.0050 C   0  0  0  0  0  0  0  0  0  0  0  0
   40.8790   26.4850  -15.5810 C   0  0  0  0  0  0  0  0  0  0  0  0
   40.1930   27.2970  -14.6840 O   0  0  0  0  0  0  0  0  0  0  0  0
   39.0260   27.8940  -15.0880 C   0  0  0  0  0  0  0  0  0  0  0  0
   38.3620   28.6860  -14.1510 C   0  0  0  0  0  0  0  0  0  0  0  0
   37.1700   29.3240  -14.4980 C   0  0  0  0  0  0  0  0  0  0  0  0
   36.6430   29.1720  -15.7830 C   0  0  0  0  0  0  0  0  0  0  0  0
   37.3080   28.3820  -16.7160 C   0  0  0  0  0  0  0  0  0  0  0  0
   36.7370   28.2750  -17.9550 O   0  0  0  0  0  0  0  0  0  0  0  0
   38.5010   27.7420  -16.3670 C   0  0  0  0  0  0  0  0  0  0  0  0
   39.2310   26.9010  -17.3170 C   0  0  0  0  0  0  0  0  0  0  0  0
   38.8350   26.7240  -18.4680 O   0  0  0  0  0  0  0  0  0  0  0  0
   40.4810   26.2620  -16.8460 C   0  0  0  0  0  0  0  0  0  0  0  0
   41.1690   25.4810  -17.7580 O   0  0  0  0  0  0  0  0  0  0  0  0
   43.2700   26.6880  -14.8220 C   0  0  0  0  0  0  0  0  0  0  0  0
   44.4560   26.1420  -14.2950 C   0  0  0  0  0  0  0  0  0  0  0  0
   45.6030   26.9240  -14.0730 N   0  0  0  0  0  0  0  0  0  0  0  0
   46.7400   26.4970  -14.9120 C   0  0  0  0  0  0  0  0  0  0  0  0
   47.9670   26.8290  -14.0730 C   0  0  0  0  0  0  0  0  0  0  0  0
   47.4850   26.5300  -12.6660 C   0  0  0  0  0  0  0  0  0  0  0  0
   46.0590   27.0710  -12.6790 C   0  0  0  0  0  0  0  0  0  0  0  0
   45.6577   24.1699  -12.2696 H   0  0  0  0  0  0  0  0  0  0  0  0
   45.7779   23.0986  -13.7064 H   0  0  0  0  0  0  0  0  0  0  0  0
   46.5983   24.6966  -13.7064 H   0  0  0  0  0  0  0  0  0  0  0  0
   43.3368   22.9309  -13.8564 H   0  0  0  0  0  0  0  0  0  0  0  0
   41.2690   23.9278  -14.8095 H   0  0  0  0  0  0  0  0  0  0  0  0
   38.7774   28.8076  -13.1397 H   0  0  0  0  0  0  0  0  0  0  0  0
   36.6450   29.9471  -13.7590 H   0  0  0  0  0  0  0  0  0  0  0  0
   35.7042   29.6758  -16.0567 H   0  0  0  0  0  0  0  0  0  0  0  0
   36.1600   28.9460  -18.2630 H   0  0  0  0  0  0  0  0  0  0  0  0
   40.7140   24.8310  -18.2550 H   0  0  0  0  0  0  0  0  0  0  0  0
   43.2481   27.7526  -15.0980 H   0  0  0  0  0  0  0  0  0  0  0  0
   46.6889   25.4178  -15.1189 H   0  0  0  0  0  0  0  0  0  0  0  0
   46.7517   26.9958  -15.8923 H   0  0  0  0  0  0  0  0  0  0  0  0
   48.8209   26.1914  -14.3458 H   0  0  0  0  0  0  0  0  0  0  0  0
   48.3267   27.8599  -14.2063 H   0  0  0  0  0  0  0  0  0  0  0  0
   47.4974   25.4488  -12.4637 H   0  0  0  0  0  0  0  0  0  0  0  0
   48.1152   26.9783  -11.8838 H   0  0  0  0  0  0  0  0  0  0  0  0
   45.4190   26.4881  -12.0002 H   0  0  0  0  0  0  0  0  0  0  0  0
   46.0125   28.1161  -12.3391 H   0  0  0  0  0  0  0  0  0  0  0  0
  1  2  1  0
  2  3  2  0
  3  4  1  0
  4  5  2  0
  5  6  1  0
  6  7  1  0
  7  8  1  0
  8  9  2  0
  9 10  1  0
 10 11  2  0
 11 12  1  0
 12 13  1  0
 12 14  2  0
 14 15  1  0
 15 16  2  0
 15 17  1  0
 17 18  1  0
  5 19  1  0
 19 20  2  0
 20 21  1  0
 21 22  1  0
 22 23  1  0
 23 24  1  0
 24 25  1  0
 20  2  1  0
 25 21  1  0
 17  6  2  0
 14  8  1  0
  1 26  1  0
  1 27  1  0
  1 28  1  0
  3 29  1  0
  4 30  1  0
  9 31  1  0
 10 32  1  0
 11 33  1  0
 13 34  1  0
 18 35  1  0
 19 36  1  0
 22 37  1  0
 22 38  1  0
 23 39  1  0
 23 40  1  0
 24 41  1  0
 24 42  1  0
 25 43  1  0
 25 44  1  0
M  END
>  <meeko>  (6) 
{"is_sidechain": [false], "free_energy": -4.912, "intermolecular_energy": -5.323, "internal_energy": 0.849}

$$$$
