cand_033_out
     RDKit          3D

 44 46  0  0  0  0  0  0  0  0999 V2000
   40.7080   27.3310  -11.5500 C   0  0  0  0  0  0  0  0  0  0  0  0
   41.8300   26.6120  -10.8200 C   0  0  0  0  0  0  0  0  0  0  0  0
   43.1450   26.6940  -11.5990 C   0  0  0  0  0  0  0  0  0  0  0  0
   42.9760   26.2390  -13.0320 C   0  0  0  0  0  0  0  0  0  0  0  0
   41.8220   26.6590  -13.7250 C   0  0  0  0  0  0  0  0  0  0  0  0
   41.5690   26.2710  -15.0480 C   0  0  0  0  0  0  0  0  0  0  0  0
   40.3720   26.7330  -15.7810 C   0  0  0  0  0  0  0  0  0  0  0  0
   39.5610   27.5660  -15.0190 O   0  0  0  0  0  0  0  0  0  0  0  0
   38.4130   28.0680  -15.5770 C   0  0  0  0  0  0  0  0  0  0  0  0
   37.6220   28.8880  -14.7720 C   0  0  0  0  0  0  0  0  0  0  0  0
   36.4400   29.4320  -15.2800 C   0  0  0  0  0  0  0  0  0  0  0  0
   36.0510   29.1590  -16.5930 C   0  0  0  0  0  0  0  0  0  0  0  0
   36.8440   28.3410  -17.3950 C   0  0  0  0  0  0  0  0  0  0  0  0
   36.4050   28.1140  -18.6700 O   0  0  0  0  0  0  0  0  0  0  0  0
   38.0250   27.7960  -16.8860 C   0  0  0  0  0  0  0  0  0  0  0  0
   38.8870   26.9310  -17.6940 C   0  0  0  0  0  0  0  0  0  0  0  0
   38.6150   26.6490  -18.8600 O   0  0  0  0  0  0  0  0  0  0  0  0
   40.1120   26.3970  -17.0580 C   0  0  0  0  0  0  0  0  0  0  0  0
   40.9250   25.5920  -17.8350 O   0  0  0  0  0  0  0  0  0  0  0  0
   42.5070   25.4550  -15.6880 C   0  0  0  0  0  0  0  0  0  0  0  0
   43.6530   25.0240  -15.0160 C   0  0  0  0  0  0  0  0  0  0  0  0
   43.8990   25.3980  -13.6840 C   0  0  0  0  0  0  0  0  0  0  0  0
   45.1660   24.8980  -13.0280 C   0  0  0  0  0  0  0  0  0  0  0  0
   46.3650   24.9920  -13.9610 C   0  0  0  0  0  0  0  0  0  0  0  0
   40.0177   27.7733  -10.8166 H   0  0  0  0  0  0  0  0  0  0  0  0
   41.1316   28.1263  -12.1809 H   0  0  0  0  0  0  0  0  0  0  0  0
   40.1624   26.6139  -12.1809 H   0  0  0  0  0  0  0  0  0  0  0  0
   41.9695   27.0758   -9.8324 H   0  0  0  0  0  0  0  0  0  0  0  0
   41.5535   25.5523  -10.7177 H   0  0  0  0  0  0  0  0  0  0  0  0
   43.4972   27.7361  -11.5951 H   0  0  0  0  0  0  0  0  0  0  0  0
   43.8740   26.0296  -11.1120 H   0  0  0  0  0  0  0  0  0  0  0  0
   41.0989   27.3104  -13.2122 H   0  0  0  0  0  0  0  0  0  0  0  0
   37.9288   29.1059  -13.7384 H   0  0  0  0  0  0  0  0  0  0  0  0
   35.8146   30.0765  -14.6447 H   0  0  0  0  0  0  0  0  0  0  0  0
   35.1208   29.5887  -16.9931 H   0  0  0  0  0  0  0  0  0  0  0  0
   35.5180   27.8490  -18.8210 H   0  0  0  0  0  0  0  0  0  0  0  0
   41.6870   25.1950  -17.4610 H   0  0  0  0  0  0  0  0  0  0  0  0
   42.3406   25.1494  -16.7315 H   0  0  0  0  0  0  0  0  0  0  0  0
   44.3758   24.3804  -15.5387 H   0  0  0  0  0  0  0  0  0  0  0  0
   45.3649   25.5037  -12.1316 H   0  0  0  0  0  0  0  0  0  0  0  0
   45.0195   23.8393  -12.7677 H   0  0  0  0  0  0  0  0  0  0  0  0
   47.2876   25.0643  -13.3663 H   0  0  0  0  0  0  0  0  0  0  0  0
   46.4072   24.0944  -14.5955 H   0  0  0  0  0  0  0  0  0  0  0  0
   46.2668   25.8852  -14.5955 H   0  0  0  0  0  0  0  0  0  0  0  0
  1  2  1  0
  2  3  1  0
  3  4  1  0
  4  5  2  0
  5  6  1  0
  6  7  1  0
  7  8  1  0
  8  9  1  0
  9 10  2  0
 10 11  1  0
 11 12  2  0
 12 13  1  0
 13 14  1  0
 13 15  2  0
 15 16  1  0
 16 17  2  0
 16 18  1  0
 18 19  1  0
  6 20  2  0
 20 21  1  0
 21 22  2  0
 22 23  1  0
 23 24  1  0
 22  4  1  0
 18  7  2  0
 15  9  1  0
  1 25  1  0
  1 26  1  0
  1 27  1  0
  2 28  1  0
  2 29  1  0
  3 30  1  0
  3 31  1  0
  5 32  1  0
 10 33  1  0
 11 34  1  0
 12 35  1  0
 14 36  1  0
 19 37  1  0
 20 38  1  0
 21 39  1  0
 23 40  1  0
 23 41  1  0
 24 42  1  0
 24 43  1  0
 24 44  1  0
M  END
>  <meeko>  (1) 
{"is_sidechain": [false], "free_energy": -7.437, "intermolecular_energy": -9.611, "internal_energy": 1.123}

$$$$
cand_033_out
     RDKit          3D

 44 46  0  0  0  0  0  0  0  0999 V2000
   47.7130   27.7580  -11.8760 C   0  0  0  0  0  0  0  0  0  0  0  0
   46.6460   27.3700  -12.8860 C   0  0  0  0  0  0  0  0  0  0  0  0
   45.3190   27.0430  -12.1980 C   0  0  0  0  0  0  0  0  0  0  0  0
   44.3640   26.3320  -13.1320 C   0  0  0  0  0  0  0  0  0  0  0  0
   43.1240   26.9470  -13.4010 C   0  0  0  0  0  0  0  0  0  0  0  0
   42.1680   26.3530  -14.2360 C   0  0  0  0  0  0  0  0  0  0  0  0
   40.8790   27.0110  -14.5370 C   0  0  0  0  0  0  0  0  0  0  0  0
   40.4140   26.7280  -15.8160 O   0  0  0  0  0  0  0  0  0  0  0  0
   39.2270   27.2770  -16.2280 C   0  0  0  0  0  0  0  0  0  0  0  0
   38.8060   26.9780  -17.5250 C   0  0  0  0  0  0  0  0  0  0  0  0
   37.6050   27.5030  -18.0060 C   0  0  0  0  0  0  0  0  0  0  0  0
   36.8240   28.3260  -17.1910 C   0  0  0  0  0  0  0  0  0  0  0  0
   37.2460   28.6210  -15.8970 C   0  0  0  0  0  0  0  0  0  0  0  0
   36.4340   29.4320  -15.1530 O   0  0  0  0  0  0  0  0  0  0  0  0
   38.4480   28.0960  -15.4160 C   0  0  0  0  0  0  0  0  0  0  0  0
   38.9290   28.3830  -14.0630 C   0  0  0  0  0  0  0  0  0  0  0  0
   38.2950   29.0920  -13.2850 O   0  0  0  0  0  0  0  0  0  0  0  0
   40.2200   27.7840  -13.6540 C   0  0  0  0  0  0  0  0  0  0  0  0
   40.6570   28.0510  -12.3690 O   0  0  0  0  0  0  0  0  0  0  0  0
   42.4750   25.1220  -14.8220 C   0  0  0  0  0  0  0  0  0  0  0  0
   43.6960   24.4940  -14.5640 C   0  0  0  0  0  0  0  0  0  0  0  0
   44.6480   25.0800  -13.7130 C   0  0  0  0  0  0  0  0  0  0  0  0
   45.9490   24.3430  -13.4890 C   0  0  0  0  0  0  0  0  0  0  0  0
   47.0160   24.7550  -14.4930 C   0  0  0  0  0  0  0  0  0  0  0  0
   47.3227   27.6161  -10.8574 H   0  0  0  0  0  0  0  0  0  0  0  0
   48.6013   27.1253  -12.0197 H   0  0  0  0  0  0  0  0  0  0  0  0
   47.9874   28.8135  -12.0197 H   0  0  0  0  0  0  0  0  0  0  0  0
   46.4913   28.2071  -13.5826 H   0  0  0  0  0  0  0  0  0  0  0  0
   46.9877   26.4731  -13.4235 H   0  0  0  0  0  0  0  0  0  0  0  0
   45.5172   26.3960  -11.3307 H   0  0  0  0  0  0  0  0  0  0  0  0
   44.8525   27.9891  -11.8860 H   0  0  0  0  0  0  0  0  0  0  0  0
   42.9005   27.9214  -12.9421 H   0  0  0  0  0  0  0  0  0  0  0  0
   39.4198   26.3295  -18.1673 H   0  0  0  0  0  0  0  0  0  0  0  0
   37.2733   27.2682  -19.0282 H   0  0  0  0  0  0  0  0  0  0  0  0
   35.8781   28.7400  -17.5704 H   0  0  0  0  0  0  0  0  0  0  0  0
   35.5560   29.6010  -15.4330 H   0  0  0  0  0  0  0  0  0  0  0  0
   41.1940   28.8010  -12.2030 H   0  0  0  0  0  0  0  0  0  0  0  0
   41.7476   24.6425  -15.4935 H   0  0  0  0  0  0  0  0  0  0  0  0
   43.9157   23.5245  -15.0350 H   0  0  0  0  0  0  0  0  0  0  0  0
   46.3120   24.5630  -12.4742 H   0  0  0  0  0  0  0  0  0  0  0  0
   45.7575   23.2675  -13.6178 H   0  0  0  0  0  0  0  0  0  0  0  0
   47.9113   25.1007  -13.9555 H   0  0  0  0  0  0  0  0  0  0  0  0
   47.2775   23.8932  -15.1246 H   0  0  0  0  0  0  0  0  0  0  0  0
   46.6304   25.5689  -15.1246 H   0  0  0  0  0  0  0  0  0  0  0  0
  1  2  1  0
  2  3  1  0
  3  4  1  0
  4  5  2  0
  5  6  1  0
  6  7  1  0
  7  8  1  0
  8  9  1  0
  9 10  2  0
 10 11  1  0
 11 12  2  0
 12 13  1  0
 13 14  1  0
 13 15  2  0
 15 16  1  0
 16 17  2  0
 16 18  1  0
 18 19  1  0
  6 20  2  0
 20 21  1  0
 21 22  2  0
 22 23  1  0
 23 24  1  0
 22  4  1  0
 18  7  2  0
 15  9  1  0
  1 25  1  0
  1 26  1  0
  1 27  1  0
  2 28  1  0
  2 29  1  0
  3 30  1  0
  3 31  1  0
  5 32  1  0
 10 33  1  0
 11 34  1  0
 12 35  1  0
 14 36  1  0
 19 37  1  0
 20 38  1  0
 21 39  1  0
 23 40  1  0
 23 41  1  0
 24 42  1  0
 24 43  1  0
 24 44  1  0
M  END
>  <meeko>  (2) 
{"is_sidechain": [false], "free_energy": -6.689, "intermolecular_energy": -7.882, "internal_energy": 0.361}

$$$$
cand_033_out
     RDKit          3D

 44 46  0  0  0  0  0  0  0  0999 V2000
   47.1460   27.6390  -11.9030 C   0  0  0  0  0  0  0  0  0  0  0  0
   46.0860   27.6800  -12.9920 C   0  0  0  0  0  0  0  0  0  0  0  0
   44.7050   27.3160  -12.4410 C   0  0  0  0  0  0  0  0  0  0  0  0
   43.9520   26.3990  -13.3790 C   0  0  0  0  0  0  0  0  0  0  0  0
   42.7690   26.8890  -13.9700 C   0  0  0  0  0  0  0  0  0  0  0  0
   41.9930   26.1040  -14.8350 C   0  0  0  0  0  0  0  0  0  0  0  0
   40.7670   26.6280  -15.4740 C   0  0  0  0  0  0  0  0  0  0  0  0
   40.0290   27.4520  -14.6310 O   0  0  0  0  0  0  0  0  0  0  0  0
   38.8650   28.0070  -15.0970 C   0  0  0  0  0  0  0  0  0  0  0  0
   38.1490   28.8150  -14.2130 C   0  0  0  0  0  0  0  0  0  0  0  0
   36.9550   29.4110  -14.6260 C   0  0  0  0  0  0  0  0  0  0  0  0
   36.4780   29.2010  -15.9210 C   0  0  0  0  0  0  0  0  0  0  0  0
   37.1960   28.3940  -16.8010 C   0  0  0  0  0  0  0  0  0  0  0  0
   36.6720   28.2310  -18.0550 O   0  0  0  0  0  0  0  0  0  0  0  0
   38.3890   27.7970  -16.3880 C   0  0  0  0  0  0  0  0  0  0  0  0
   39.1730   26.9420  -17.2820 C   0  0  0  0  0  0  0  0  0  0  0  0
   38.8230   26.7150  -18.4380 O   0  0  0  0  0  0  0  0  0  0  0  0
   40.4200   26.3510  -16.7440 C   0  0  0  0  0  0  0  0  0  0  0  0
   41.1590   25.5550  -17.6010 O   0  0  0  0  0  0  0  0  0  0  0  0
   42.4270   24.8070  -15.1200 C   0  0  0  0  0  0  0  0  0  0  0  0
   43.5930   24.3020  -14.5390 C   0  0  0  0  0  0  0  0  0  0  0  0
   44.3620   25.0810  -13.6590 C   0  0  0  0  0  0  0  0  0  0  0  0
   45.6160   24.4670  -13.0780 C   0  0  0  0  0  0  0  0  0  0  0  0
   46.7960   24.5730  -14.0320 C   0  0  0  0  0  0  0  0  0  0  0  0
   46.6593   27.6578  -10.9167 H   0  0  0  0  0  0  0  0  0  0  0  0
   47.7381   26.7173  -12.0022 H   0  0  0  0  0  0  0  0  0  0  0  0
   47.8075   28.5122  -12.0022 H   0  0  0  0  0  0  0  0  0  0  0  0
   46.0465   28.6946  -13.4150 H   0  0  0  0  0  0  0  0  0  0  0  0
   46.3551   26.9451  -13.7650 H   0  0  0  0  0  0  0  0  0  0  0  0
   44.8298   26.8104  -11.4721 H   0  0  0  0  0  0  0  0  0  0  0  0
   44.1249   28.2439  -12.3297 H   0  0  0  0  0  0  0  0  0  0  0  0
   42.4457   27.9163  -13.7461 H   0  0  0  0  0  0  0  0  0  0  0  0
   38.5241   28.9824  -13.1926 H   0  0  0  0  0  0  0  0  0  0  0  0
   36.3895   30.0472  -13.9293 H   0  0  0  0  0  0  0  0  0  0  0  0
   35.5381   29.6712  -16.2457 H   0  0  0  0  0  0  0  0  0  0  0  0
   36.0510   27.5490  -18.2180 H   0  0  0  0  0  0  0  0  0  0  0  0
   41.7410   24.9080  -17.2540 H   0  0  0  0  0  0  0  0  0  0  0  0
   41.8449   24.1771  -15.8087 H   0  0  0  0  0  0  0  0  0  0  0  0
   43.9142   23.2767  -14.7748 H   0  0  0  0  0  0  0  0  0  0  0  0
   45.8670   24.9893  -12.1430 H   0  0  0  0  0  0  0  0  0  0  0  0
   45.4198   23.3999  -12.8969 H   0  0  0  0  0  0  0  0  0  0  0  0
   47.7283   24.6567  -13.4542 H   0  0  0  0  0  0  0  0  0  0  0  0
   46.8369   23.6749  -14.6658 H   0  0  0  0  0  0  0  0  0  0  0  0
   46.6762   25.4640  -14.6658 H   0  0  0  0  0  0  0  0  0  0  0  0
  1  2  1  0
  2  3  1  0
  3  4  1  0
  4  5  2  0
  5  6  1  0
  6  7  1  0
  7  8  1  0
  8  9  1  0
  9 10  2  0
 10 11  1  0
 11 12  2  0
 12 13  1  0
 13 14  1  0
 13 15  2  0
 15 16  1  0
 16 17  2  0
 16 18  1  0
 18 19  1  0
  6 20  2  0
 20 21  1  0
 21 22  2  0
 22 23  1  0
 23 24  1  0
 22  4  1  0
 18  7  2  0
 15  9  1  0
  1 25  1  0
  1 26  1  0
  1 27  1  0
  2 28  1  0
  2 29  1  0
  3 30  1  0
  3 31  1  0
  5 32  1  0
 10 33  1  0
 11 34  1  0
 12 35  1  0
 14 36  1  0
 19 37  1  0
 20 38  1  0
 21 39  1  0
 23 40  1  0
 23 41  1  0
 24 42  1  0
 24 43  1  0
 24 44  1  0
M  END
>  <meeko>  (3) 
{"is_sidechain": [false], "free_energy": -6.453, "intermolecular_energy": -7.183, "internal_energy": -0.032}

$$$$
cand_033_out
     RDKit          3D

 44 46  0  0  0  0  0  0  0  0999 V2000
   41.2960   26.7910  -11.0520 C   0  0  0  0  0  0  0  0  0  0  0  0
   42.7290   26.3730  -10.7670 C   0  0  0  0  0  0  0  0  0  0  0  0
   43.6580   26.7400  -11.9260 C   0  0  0  0  0  0  0  0  0  0  0  0
   43.0890   26.3060  -13.2590 C   0  0  0  0  0  0  0  0  0  0  0  0
   41.8690   26.8810  -13.6730 C   0  0  0  0  0  0  0  0  0  0  0  0
   41.2540   26.5260  -14.8810 C   0  0  0  0  0  0  0  0  0  0  0  0
   39.9890   27.1480  -15.3250 C   0  0  0  0  0  0  0  0  0  0  0  0
   39.5780   26.7010  -16.5760 O   0  0  0  0  0  0  0  0  0  0  0  0
   38.4170   27.1990  -17.1110 C   0  0  0  0  0  0  0  0  0  0  0  0
   38.0500   26.7340  -18.3740 C   0  0  0  0  0  0  0  0  0  0  0  0
   36.8790   27.2000  -18.9750 C   0  0  0  0  0  0  0  0  0  0  0  0
   36.0740   28.1300  -18.3120 C   0  0  0  0  0  0  0  0  0  0  0  0
   36.4430   28.5910  -17.0510 C   0  0  0  0  0  0  0  0  0  0  0  0
   35.6100   29.5000  -16.4580 O   0  0  0  0  0  0  0  0  0  0  0  0
   37.6150   28.1250  -16.4510 C   0  0  0  0  0  0  0  0  0  0  0  0
   38.0390   28.5850  -15.1270 C   0  0  0  0  0  0  0  0  0  0  0  0
   37.3810   29.3970  -14.4790 O   0  0  0  0  0  0  0  0  0  0  0  0
   39.3030   28.0360  -14.5840 C   0  0  0  0  0  0  0  0  0  0  0  0
   39.6860   28.4680  -13.3270 O   0  0  0  0  0  0  0  0  0  0  0  0
   41.8900   25.5830  -15.6950 C   0  0  0  0  0  0  0  0  0  0  0  0
   43.0960   24.9980  -15.3000 C   0  0  0  0  0  0  0  0  0  0  0  0
   43.7040   25.3410  -14.0800 C   0  0  0  0  0  0  0  0  0  0  0  0
   45.0130   24.6710  -13.7260 C   0  0  0  0  0  0  0  0  0  0  0  0
   46.2110   25.5330  -14.0960 C   0  0  0  0  0  0  0  0  0  0  0  0
   40.7635   26.9463  -10.1021 H   0  0  0  0  0  0  0  0  0  0  0  0
   41.2951   27.7268  -11.6301 H   0  0  0  0  0  0  0  0  0  0  0  0
   40.7921   26.0024  -11.6301 H   0  0  0  0  0  0  0  0  0  0  0  0
   43.0757   26.8817   -9.8554 H   0  0  0  0  0  0  0  0  0  0  0  0
   42.7520   25.2809  -10.6370 H   0  0  0  0  0  0  0  0  0  0  0  0
   43.8000   27.8307  -11.9373 H   0  0  0  0  0  0  0  0  0  0  0  0
   44.6152   26.2191  -11.7761 H   0  0  0  0  0  0  0  0  0  0  0  0
   41.3862   27.6302  -13.0284 H   0  0  0  0  0  0  0  0  0  0  0  0
   38.6826   26.0009  -18.8959 H   0  0  0  0  0  0  0  0  0  0  0  0
   36.5899   26.8346  -19.9715 H   0  0  0  0  0  0  0  0  0  0  0  0
   35.1512   28.4970  -18.7850 H   0  0  0  0  0  0  0  0  0  0  0  0
   34.7170   29.5690  -16.7370 H   0  0  0  0  0  0  0  0  0  0  0  0
   39.2370   29.1820  -12.9190 H   0  0  0  0  0  0  0  0  0  0  0  0
   41.4362   25.2990  -16.6559 H   0  0  0  0  0  0  0  0  0  0  0  0
   43.5775   24.2567  -15.9547 H   0  0  0  0  0  0  0  0  0  0  0  0
   45.0332   24.4804  -12.6428 H   0  0  0  0  0  0  0  0  0  0  0  0
   45.0800   23.7324  -14.2956 H   0  0  0  0  0  0  0  0  0  0  0  0
   46.7044   25.8880  -13.1792 H   0  0  0  0  0  0  0  0  0  0  0  0
   46.9219   24.9380  -14.6881 H   0  0  0  0  0  0  0  0  0  0  0  0
   45.8728   26.3961  -14.6881 H   0  0  0  0  0  0  0  0  0  0  0  0
  1  2  1  0
  2  3  1  0
  3  4  1  0
  4  5  2  0
  5  6  1  0
  6  7  1  0
  7  8  1  0
  8  9  1  0
  9 10  2  0
 10 11  1  0
 11 12  2  0
 12 13  1  0
 13 14  1  0
 13 15  2  0
 15 16  1  0
 16 17  2  0
 16 18  1  0
 18 19  1  0
  6 20  2  0
 20 21  1  0
 21 22  2  0
 22 23  1  0
 23 24  1  0
 22  4  1  0
 18  7  2  0
 15  9  1  0
  1 25  1  0
  1 26  1  0
  1 27  1  0
  2 28  1  0
  2 29  1  0
  3 30  1  0
  3 31  1  0
  5 32  1  0
 10 33  1  0
 11 34  1  0
 12 35  1  0
 14 36  1  0
 19 37  1  0
 20 38  1  0
 21 39  1  0
 23 40  1  0
 23 41  1  0
 24 42  1  0
 24 43  1  0
 24 44  1  0
M  END
>  <meeko>  (4) 
{"is_sidechain": [false], "free_energy": -5.646, "intermolecular_energy": -7.073, "internal_energy": 0.9}

$$$$
cand_033_out
     RDKit          3D

 44 46  0  0  0  0  0  0  0  0999 V2000
   46.9720   24.6460  -14.0370 C   0  0  0  0  0  0  0  0  0  0  0  0
   45.8310   25.4210  -14.6750 C   0  0  0  0  0  0  0  0  0  0  0  0
   44.5000   24.6820  -14.5250 C   0  0  0  0  0  0  0  0  0  0  0  0
   43.4030   25.5980  -14.0280 C   0  0  0  0  0  0  0  0  0  0  0  0
   42.3400   25.8910  -14.9080 C   0  0  0  0  0  0  0  0  0  0  0  0
   41.2910   26.7460  -14.5440 C   0  0  0  0  0  0  0  0  0  0  0  0
   40.1650   27.0310  -15.4570 C   0  0  0  0  0  0  0  0  0  0  0  0
   39.2240   27.8920  -14.9020 O   0  0  0  0  0  0  0  0  0  0  0  0
   38.1240   28.2410  -15.6430 C   0  0  0  0  0  0  0  0  0  0  0  0
   37.1990   29.0950  -15.0410 C   0  0  0  0  0  0  0  0  0  0  0  0
   36.0570   29.4890  -15.7410 C   0  0  0  0  0  0  0  0  0  0  0  0
   35.8410   29.0320  -17.0430 C   0  0  0  0  0  0  0  0  0  0  0  0
   36.7660   28.1800  -17.6410 C   0  0  0  0  0  0  0  0  0  0  0  0
   36.4930   27.7700  -18.9170 O   0  0  0  0  0  0  0  0  0  0  0  0
   37.9080   27.7850  -16.9400 C   0  0  0  0  0  0  0  0  0  0  0  0
   38.9050   26.8910  -17.5310 C   0  0  0  0  0  0  0  0  0  0  0  0
   38.7880   26.4510  -18.6730 O   0  0  0  0  0  0  0  0  0  0  0  0
   40.0760   26.5250  -16.7010 C   0  0  0  0  0  0  0  0  0  0  0  0
   41.0180   25.6910  -17.2740 O   0  0  0  0  0  0  0  0  0  0  0  0
   41.3080   27.3060  -13.2620 C   0  0  0  0  0  0  0  0  0  0  0  0
   42.3560   27.0320  -12.3790 C   0  0  0  0  0  0  0  0  0  0  0  0
   43.4160   26.1890  -12.7490 C   0  0  0  0  0  0  0  0  0  0  0  0
   44.5090   25.9350  -11.7350 C   0  0  0  0  0  0  0  0  0  0  0  0
   45.6350   26.9520  -11.8460 C   0  0  0  0  0  0  0  0  0  0  0  0
   46.8871   24.7036  -12.9418 H   0  0  0  0  0  0  0  0  0  0  0  0
   46.9227   23.5937  -14.3537 H   0  0  0  0  0  0  0  0  0  0  0  0
   47.9320   25.0797  -14.3537 H   0  0  0  0  0  0  0  0  0  0  0  0
   45.7508   26.4045  -14.1888 H   0  0  0  0  0  0  0  0  0  0  0  0
   46.0459   25.5317  -15.7481 H   0  0  0  0  0  0  0  0  0  0  0  0
   44.2071   24.2735  -15.5034 H   0  0  0  0  0  0  0  0  0  0  0  0
   44.6359   23.8783  -13.7863 H   0  0  0  0  0  0  0  0  0  0  0  0
   42.3344   25.4351  -15.9090 H   0  0  0  0  0  0  0  0  0  0  0  0
   37.3693   29.4573  -14.0164 H   0  0  0  0  0  0  0  0  0  0  0  0
   35.3263   30.1604  -15.2663 H   0  0  0  0  0  0  0  0  0  0  0  0
   34.9422   29.3444  -17.5948 H   0  0  0  0  0  0  0  0  0  0  0  0
   36.0270   28.3350  -19.5020 H   0  0  0  0  0  0  0  0  0  0  0  0
   41.0750   24.7950  -17.0060 H   0  0  0  0  0  0  0  0  0  0  0  0
   40.4886   27.9683  -12.9460 H   0  0  0  0  0  0  0  0  0  0  0  0
   42.3503   27.4848  -11.3765 H   0  0  0  0  0  0  0  0  0  0  0  0
   44.0770   25.9919  -10.7250 H   0  0  0  0  0  0  0  0  0  0  0  0
   44.9303   24.9380  -11.9312 H   0  0  0  0  0  0  0  0  0  0  0  0
   45.9625   27.2478  -10.8384 H   0  0  0  0  0  0  0  0  0  0  0  0
   46.4803   26.5052  -12.3899 H   0  0  0  0  0  0  0  0  0  0  0  0
   45.2763   27.8383  -12.3899 H   0  0  0  0  0  0  0  0  0  0  0  0
  1  2  1  0
  2  3  1  0
  3  4  1  0
  4  5  2  0
  5  6  1  0
  6  7  1  0
  7  8  1  0
  8  9  1  0
  9 10  2  0
 10 11  1  0
 11 12  2  0
 12 13  1  0
 13 14  1  0
 13 15  2  0
 15 16  1  0
 16 17  2  0
 16 18  1  0
 18 19  1  0
  6 20  2  0
 20 21  1  0
 21 22  2  0
 22 23  1  0
 23 24  1  0
 22  4  1  0
 18  7  2  0
 15  9  1  0
  1 25  1  0
  1 26  1  0
  1 27  1  0
  2 28  1  0
  2 29  1  0
  3 30  1  0
  3 31  1  0
  5 32  1  0
 10 33  1  0
 11 34  1  0
 12 35  1  0
 14 36  1  0
 19 37  1  0
 20 38  1  0
 21 39  1  0
 23 40  1  0
 23 41  1  0
 24 42  1  0
 24 43  1  0
 24 44  1  0
M  END
>  <meeko>  (5) 
{"is_sidechain": [false], "free_energy": -5.566, "intermolecular_energy": -6.494, "internal_energy": 0.424}

$$$$
cand_033_out
     RDKit          3D

 44 46  0  0  0  0  0  0  0  0999 V2000
   34.9090   29.8250  -18.2530 C   0  0  0  0  0  0  0  0  0  0  0  0
   36.2600   30.0170  -17.5830 C   0  0  0  0  0  0  0  0  0  0  0  0
   36.4200   29.0930  -16.3740 C   0  0  0  0  0  0  0  0  0  0  0  0
   37.4760   28.0370  -16.6120 C   0  0  0  0  0  0  0  0  0  0  0  0
   38.4930   27.8910  -15.6450 C   0  0  0  0  0  0  0  0  0  0  0  0
   39.5250   26.9550  -15.7910 C   0  0  0  0  0  0  0  0  0  0  0  0
   40.5750   26.7860  -14.7640 C   0  0  0  0  0  0  0  0  0  0  0  0
   41.7450   26.2340  -15.2740 O   0  0  0  0  0  0  0  0  0  0  0  0
   42.8030   26.0210  -14.4270 C   0  0  0  0  0  0  0  0  0  0  0  0
   43.9510   25.4520  -14.9790 C   0  0  0  0  0  0  0  0  0  0  0  0
   45.0650   25.2100  -14.1710 C   0  0  0  0  0  0  0  0  0  0  0  0
   45.0310   25.5390  -12.8140 C   0  0  0  0  0  0  0  0  0  0  0  0
   43.8840   26.1080  -12.2680 C   0  0  0  0  0  0  0  0  0  0  0  0
   43.9180   26.4050  -10.9330 O   0  0  0  0  0  0  0  0  0  0  0  0
   42.7700   26.3490  -13.0750 C   0  0  0  0  0  0  0  0  0  0  0  0
   41.5440   26.9450  -12.5400 C   0  0  0  0  0  0  0  0  0  0  0  0
   41.4400   27.2670  -11.3580 O   0  0  0  0  0  0  0  0  0  0  0  0
   40.4170   27.1510  -13.4780 C   0  0  0  0  0  0  0  0  0  0  0  0
   39.2690   27.7260  -12.9650 O   0  0  0  0  0  0  0  0  0  0  0  0
   39.5240   26.1400  -16.9260 C   0  0  0  0  0  0  0  0  0  0  0  0
   38.5290   26.2730  -17.8980 C   0  0  0  0  0  0  0  0  0  0  0  0
   37.5030   27.2230  -17.7620 C   0  0  0  0  0  0  0  0  0  0  0  0
   36.4580   27.3010  -18.8520 C   0  0  0  0  0  0  0  0  0  0  0  0
   36.8670   26.5130  -20.0880 C   0  0  0  0  0  0  0  0  0  0  0  0
   34.1306   29.7144  -17.4837 H   0  0  0  0  0  0  0  0  0  0  0  0
   34.6830   30.7001  -18.8801 H   0  0  0  0  0  0  0  0  0  0  0  0
   34.9358   28.9216  -18.8801 H   0  0  0  0  0  0  0  0  0  0  0  0
   37.0549   29.7955  -18.3104 H   0  0  0  0  0  0  0  0  0  0  0  0
   36.3287   31.0581  -17.2345 H   0  0  0  0  0  0  0  0  0  0  0  0
   36.7094   29.6958  -15.5006 H   0  0  0  0  0  0  0  0  0  0  0  0
   35.4598   28.5846  -16.2019 H   0  0  0  0  0  0  0  0  0  0  0  0
   38.4750   28.5308  -14.7504 H   0  0  0  0  0  0  0  0  0  0  0  0
   43.9791   25.1944  -16.0480 H   0  0  0  0  0  0  0  0  0  0  0  0
   45.9702   24.7597  -14.6043 H   0  0  0  0  0  0  0  0  0  0  0  0
   45.9084   25.3489  -12.1784 H   0  0  0  0  0  0  0  0  0  0  0  0
   44.6380   26.1160  -10.4060 H   0  0  0  0  0  0  0  0  0  0  0  0
   38.4280   27.4420  -13.2650 H   0  0  0  0  0  0  0  0  0  0  0  0
   40.3145   25.3861  -17.0556 H   0  0  0  0  0  0  0  0  0  0  0  0
   38.5494   25.6227  -18.7849 H   0  0  0  0  0  0  0  0  0  0  0  0
   35.5117   26.8930  -18.4672 H   0  0  0  0  0  0  0  0  0  0  0  0
   36.3462   28.3562  -19.1421 H   0  0  0  0  0  0  0  0  0  0  0  0
   37.3536   25.5755  -19.7808 H   0  0  0  0  0  0  0  0  0  0  0  0
   35.9744   26.2832  -20.6883 H   0  0  0  0  0  0  0  0  0  0  0  0
   37.5687   27.1107  -20.6883 H   0  0  0  0  0  0  0  0  0  0  0  0
  1  2  1  0
  2  3  1  0
  3  4  1  0
  4  5  2  0
  5  6  1  0
  6  7  1  0
  7  8  1  0
  8  9  1  0
  9 10  2  0
 10 11  1  0
 11 12  2  0
 12 13  1  0
 13 14  1  0
 13 15  2  0
 15 16  1  0
 16 17  2  0
 16 18  1  0
 18 19  1  0
  6 20  2  0
 20 21  1  0
 21 22  2  0
 22 23  1  0
 23 24  1  0
 22  4  1  0
 18  7  2  0
 15  9  1  0
  1 25  1  0
  1 26  1  0
  1 27  1  0
  2 28  1  0
  2 29  1  0
  3 30  1  0
  3 31  1  0
  5 32  1  0
 10 33  1  0
 11 34  1  0
 12 35  1  0
 14 36  1  0
 19 37  1  0
 20 38  1  0
 21 39  1  0
 23 40  1  0
 23 41  1  0
 24 42  1  0
 24 43  1  0
 24 44  1  0
M  END
>  <meeko>  (6) 
{"is_sidechain": [false], "free_energy": -5.524, "intermolecular_energy": -6.766, "internal_energy": 0.751}

$$$$
cand_033_out
     RDKit          3D

 44 46  0  0  0  0  0  0  0  0999 V2000
   45.8210   24.5980  -13.9130 C   0  0  0  0  0  0  0  0  0  0  0  0
   44.7570   25.4770  -14.5490 C   0  0  0  0  0  0  0  0  0  0  0  0
   43.3710   24.8340  -14.4530 C   0  0  0  0  0  0  0  0  0  0  0  0
   42.2960   25.8610  -14.1710 C   0  0  0  0  0  0  0  0  0  0  0  0
   41.2990   26.0560  -15.1490 C   0  0  0  0  0  0  0  0  0  0  0  0
   40.2750   27.0000  -14.9850 C   0  0  0  0  0  0  0  0  0  0  0  0
   39.2160   27.1850  -16.0000 C   0  0  0  0  0  0  0  0  0  0  0  0
   38.3680   28.2470  -15.7060 O   0  0  0  0  0  0  0  0  0  0  0  0
   37.3370   28.5300  -16.5650 C   0  0  0  0  0  0  0  0  0  0  0  0
   36.5020   29.5940  -16.2240 C   0  0  0  0  0  0  0  0  0  0  0  0
   35.4340   29.9370  -17.0570 C   0  0  0  0  0  0  0  0  0  0  0  0
   35.2030   29.2170  -18.2310 C   0  0  0  0  0  0  0  0  0  0  0  0
   36.0390   28.1560  -18.5690 C   0  0  0  0  0  0  0  0  0  0  0  0
   35.7570   27.4940  -19.7320 O   0  0  0  0  0  0  0  0  0  0  0  0
   37.1070   27.8130  -17.7350 C   0  0  0  0  0  0  0  0  0  0  0  0
   38.0090   26.7050  -18.0540 C   0  0  0  0  0  0  0  0  0  0  0  0
   37.8740   26.0290  -19.0720 O   0  0  0  0  0  0  0  0  0  0  0  0
   39.1040   26.4180  -17.0990 C   0  0  0  0  0  0  0  0  0  0  0  0
   39.9580   25.3770  -17.4170 O   0  0  0  0  0  0  0  0  0  0  0  0
   40.2490   27.7500  -13.8060 C   0  0  0  0  0  0  0  0  0  0  0  0
   41.2320   27.5740  -12.8280 C   0  0  0  0  0  0  0  0  0  0  0  0
   42.2680   26.6410  -12.9990 C   0  0  0  0  0  0  0  0  0  0  0  0
   43.2890   26.5040  -11.8920 C   0  0  0  0  0  0  0  0  0  0  0  0
   44.5030   27.3910  -12.1240 C   0  0  0  0  0  0  0  0  0  0  0  0
   45.7431   24.6624  -12.8177 H   0  0  0  0  0  0  0  0  0  0  0  0
   45.6730   23.5553  -14.2305 H   0  0  0  0  0  0  0  0  0  0  0  0
   46.8171   24.9401  -14.2305 H   0  0  0  0  0  0  0  0  0  0  0  0
   44.7380   26.4474  -14.0313 H   0  0  0  0  0  0  0  0  0  0  0  0
   45.0055   25.6069  -15.6126 H   0  0  0  0  0  0  0  0  0  0  0  0
   43.1439   24.3325  -15.4053 H   0  0  0  0  0  0  0  0  0  0  0  0
   43.3839   24.1139  -13.6216 H   0  0  0  0  0  0  0  0  0  0  0  0
   41.3252   25.4503  -16.0668 H   0  0  0  0  0  0  0  0  0  0  0  0
   36.6842   30.1625  -15.3001 H   0  0  0  0  0  0  0  0  0  0  0  0
   34.7744   30.7751  -16.7877 H   0  0  0  0  0  0  0  0  0  0  0  0
   34.3626   29.4874  -18.8872 H   0  0  0  0  0  0  0  0  0  0  0  0
   35.1390   27.8530  -20.3380 H   0  0  0  0  0  0  0  0  0  0  0  0
   40.4650   24.9650  -16.7450 H   0  0  0  0  0  0  0  0  0  0  0  0
   39.4472   28.4859  -13.6462 H   0  0  0  0  0  0  0  0  0  0  0  0
   41.1936   28.1766  -11.9085 H   0  0  0  0  0  0  0  0  0  0  0  0
   42.8193   26.7871  -10.9385 H   0  0  0  0  0  0  0  0  0  0  0  0
   43.6306   25.4586  -11.8721 H   0  0  0  0  0  0  0  0  0  0  0  0
   44.9233   27.6981  -11.1550 H   0  0  0  0  0  0  0  0  0  0  0  0
   45.2616   26.8329  -12.6924 H   0  0  0  0  0  0  0  0  0  0  0  0
   44.2019   28.2833  -12.6924 H   0  0  0  0  0  0  0  0  0  0  0  0
  1  2  1  0
  2  3  1  0
  3  4  1  0
  4  5  2  0
  5  6  1  0
  6  7  1  0
  7  8  1  0
  8  9  1  0
  9 10  2  0
 10 11  1  0
 11 12  2  0
 12 13  1  0
 13 14  1  0
 13 15  2  0
 15 16  1  0
 16 17  2  0
 16 18  1  0
 18 19  1  0
  6 20  2  0
 20 21  1  0
 21 22  2  0
 22 23  1  0
 23 24  1  0
 22  4  1  0
 18  7  2  0
 15  9  1  0
  1 25  1  0
  1 26  1  0
  1 27  1  0
  2 28  1  0
  2 29  1  0
  3 30  1  0
  3 31  1  0
  5 32  1  0
 10 33  1  0
 11 34  1  0
 12 35  1  0
 14 36  1  0
 19 37  1  0
 20 38  1  0
 21 39  1  0
 23 40  1  0
 23 41  1  0
 24 42  1  0
 24 43  1  0
 24 44  1  0
M  END
>  <meeko>  (7) 
{"is_sidechain": [false], "free_energy": -5.366, "intermolecular_energy": -6.356, "internal_energy": 0.545}

$$$$
cand_033_out
     RDKit          3D

 44 46  0  0  0  0  0  0  0  0999 V2000
   46.7330   24.6190  -14.2290 C   0  0  0  0  0  0  0  0  0  0  0  0
   45.2910   24.3060  -13.8600 C   0  0  0  0  0  0  0  0  0  0  0  0
   44.3090   25.0520  -14.7650 C   0  0  0  0  0  0  0  0  0  0  0  0
   43.3210   25.8710  -13.9630 C   0  0  0  0  0  0  0  0  0  0  0  0
   42.1560   26.3230  -14.6170 C   0  0  0  0  0  0  0  0  0  0  0  0
   41.1950   27.1060  -13.9620 C   0  0  0  0  0  0  0  0  0  0  0  0
   39.9630   27.5570  -14.6420 C   0  0  0  0  0  0  0  0  0  0  0  0
   39.7770   26.9530  -15.8810 O   0  0  0  0  0  0  0  0  0  0  0  0
   38.6710   27.2830  -16.6220 C   0  0  0  0  0  0  0  0  0  0  0  0
   38.5330   26.6640  -17.8640 C   0  0  0  0  0  0  0  0  0  0  0  0
   37.4280   26.9550  -18.6690 C   0  0  0  0  0  0  0  0  0  0  0  0
   36.4620   27.8630  -18.2290 C   0  0  0  0  0  0  0  0  0  0  0  0
   36.6030   28.4780  -16.9880 C   0  0  0  0  0  0  0  0  0  0  0  0
   35.6210   29.3560  -16.6190 O   0  0  0  0  0  0  0  0  0  0  0  0
   37.7080   28.1880  -16.1840 C   0  0  0  0  0  0  0  0  0  0  0  0
   37.8940   28.8130  -14.8740 C   0  0  0  0  0  0  0  0  0  0  0  0
   37.0850   29.6160  -14.4160 O   0  0  0  0  0  0  0  0  0  0  0  0
   39.1050   28.4430  -14.1040 C   0  0  0  0  0  0  0  0  0  0  0  0
   39.2630   29.0300  -12.8620 O   0  0  0  0  0  0  0  0  0  0  0  0
   41.4060   27.4240  -12.6180 C   0  0  0  0  0  0  0  0  0  0  0  0
   42.5560   26.9900  -11.9540 C   0  0  0  0  0  0  0  0  0  0  0  0
   43.5290   26.2200  -12.6150 C   0  0  0  0  0  0  0  0  0  0  0  0
   44.7420   25.7810  -11.8260 C   0  0  0  0  0  0  0  0  0  0  0  0
   45.8900   26.7720  -11.9510 C   0  0  0  0  0  0  0  0  0  0  0  0
   47.3265   24.7478  -13.3118 H   0  0  0  0  0  0  0  0  0  0  0  0
   47.1482   23.7901  -14.8210 H   0  0  0  0  0  0  0  0  0  0  0  0
   46.7672   25.5455  -14.8210 H   0  0  0  0  0  0  0  0  0  0  0  0
   45.1219   23.2240  -13.9634 H   0  0  0  0  0  0  0  0  0  0  0  0
   45.1208   24.6302  -12.8227 H   0  0  0  0  0  0  0  0  0  0  0  0
   44.8745   25.7239  -15.4274 H   0  0  0  0  0  0  0  0  0  0  0  0
   43.7454   24.3078  -15.3468 H   0  0  0  0  0  0  0  0  0  0  0  0
   41.9968   26.0534  -15.6715 H   0  0  0  0  0  0  0  0  0  0  0  0
   39.2928   25.9476  -18.2097 H   0  0  0  0  0  0  0  0  0  0  0  0
   37.3190   26.4687  -19.6496 H   0  0  0  0  0  0  0  0  0  0  0  0
   35.5917   28.0916  -18.8617 H   0  0  0  0  0  0  0  0  0  0  0  0
   35.0520   29.1500  -15.9030 H   0  0  0  0  0  0  0  0  0  0  0  0
   39.3900   29.9560  -12.7940 H   0  0  0  0  0  0  0  0  0  0  0  0
   40.6585   28.0226  -12.0768 H   0  0  0  0  0  0  0  0  0  0  0  0
   42.7026   27.2551  -10.8965 H   0  0  0  0  0  0  0  0  0  0  0  0
   44.4632   25.6918  -10.7657 H   0  0  0  0  0  0  0  0  0  0  0  0
   45.0800   24.8153  -12.2300 H   0  0  0  0  0  0  0  0  0  0  0  0
   46.2311   27.0665  -10.9475 H   0  0  0  0  0  0  0  0  0  0  0  0
   46.7213   26.3031  -12.4979 H   0  0  0  0  0  0  0  0  0  0  0  0
   45.5475   27.6628  -12.4979 H   0  0  0  0  0  0  0  0  0  0  0  0
  1  2  1  0
  2  3  1  0
  3  4  1  0
  4  5  2  0
  5  6  1  0
  6  7  1  0
  7  8  1  0
  8  9  1  0
  9 10  2  0
 10 11  1  0
 11 12  2  0
 12 13  1  0
 13 14  1  0
 13 15  2  0
 15 16  1  0
 16 17  2  0
 16 18  1  0
 18 19  1  0
  6 20  2  0
 20 21  1  0
 21 22  2  0
 22 23  1  0
 23 24  1  0
 22  4  1  0
 18  7  2  0
 15  9  1  0
  1 25  1  0
  1 26  1  0
  1 27  1  0
  2 28  1  0
  2 29  1  0
  3 30  1  0
  3 31  1  0
  5 32  1  0
 10 33  1  0
 11 34  1  0
 12 35  1  0
 14 36  1  0
 19 37  1  0
 20 38  1  0
 21 39  1  0
 23 40  1  0
 23 41  1  0
 24 42  1  0
 24 43  1  0
 24 44  1  0
M  END
>  <meeko>  (8) 
{"is_sidechain": [false], "free_energy": -5.086, "intermolecular_energy": -7.346, "internal_energy": 1.896}

$$$$
cand_033_out
     RDKit          3D

 44 46  0  0  0  0  0  0  0  0999 V2000
   39.4560   27.6230  -18.9290 C   0  0  0  0  0  0  0  0  0  0  0  0
   38.4450   26.5180  -18.6640 C   0  0  0  0  0  0  0  0  0  0  0  0
   37.2090   27.0540  -17.9400 C   0  0  0  0  0  0  0  0  0  0  0  0
   37.5790   27.7910  -16.6710 C   0  0  0  0  0  0  0  0  0  0  0  0
   38.6810   27.3160  -15.9300 C   0  0  0  0  0  0  0  0  0  0  0  0
   39.0840   27.9200  -14.7320 C   0  0  0  0  0  0  0  0  0  0  0  0
   40.2550   27.4360  -13.9700 C   0  0  0  0  0  0  0  0  0  0  0  0
   41.2580   26.9280  -14.7880 O   0  0  0  0  0  0  0  0  0  0  0  0
   42.4040   26.4430  -14.2110 C   0  0  0  0  0  0  0  0  0  0  0  0
   43.3770   25.9290  -15.0680 C   0  0  0  0  0  0  0  0  0  0  0  0
   44.5680   25.4200  -14.5440 C   0  0  0  0  0  0  0  0  0  0  0  0
   44.7850   25.4270  -13.1650 C   0  0  0  0  0  0  0  0  0  0  0  0
   43.8120   25.9410  -12.3120 C   0  0  0  0  0  0  0  0  0  0  0  0
   44.0890   25.9170  -10.9730 O   0  0  0  0  0  0  0  0  0  0  0  0
   42.6210   26.4490  -12.8360 C   0  0  0  0  0  0  0  0  0  0  0  0
   41.5710   26.9980  -11.9750 C   0  0  0  0  0  0  0  0  0  0  0  0
   41.6920   27.0440  -10.7520 O   0  0  0  0  0  0  0  0  0  0  0  0
   40.3430   27.5030  -12.6290 C   0  0  0  0  0  0  0  0  0  0  0  0
   39.3640   28.0320  -11.8070 O   0  0  0  0  0  0  0  0  0  0  0  0
   38.3710   29.0350  -14.2810 C   0  0  0  0  0  0  0  0  0  0  0  0
   37.2740   29.5170  -14.9980 C   0  0  0  0  0  0  0  0  0  0  0  0
   36.8570   28.9010  -16.1900 C   0  0  0  0  0  0  0  0  0  0  0  0
   35.6650   29.4870  -16.9130 C   0  0  0  0  0  0  0  0  0  0  0  0
   35.6570   29.1150  -18.3890 C   0  0  0  0  0  0  0  0  0  0  0  0
   39.8217   28.0227  -17.9717 H   0  0  0  0  0  0  0  0  0  0  0  0
   40.3014   27.2165  -19.5035 H   0  0  0  0  0  0  0  0  0  0  0  0
   38.9761   28.4290  -19.5035 H   0  0  0  0  0  0  0  0  0  0  0  0
   38.1352   26.0788  -19.6237 H   0  0  0  0  0  0  0  0  0  0  0  0
   38.9201   25.7606  -18.0232 H   0  0  0  0  0  0  0  0  0  0  0  0
   36.6747   27.7437  -18.6099 H   0  0  0  0  0  0  0  0  0  0  0  0
   36.5739   26.1985  -17.6668 H   0  0  0  0  0  0  0  0  0  0  0  0
   39.2404   26.4457  -16.3037 H   0  0  0  0  0  0  0  0  0  0  0  0
   43.2070   25.9244  -16.1548 H   0  0  0  0  0  0  0  0  0  0  0  0
   45.3356   25.0133  -15.2189 H   0  0  0  0  0  0  0  0  0  0  0  0
   45.7232   25.0271  -12.7530 H   0  0  0  0  0  0  0  0  0  0  0  0
   43.7500   26.5860  -10.4110 H   0  0  0  0  0  0  0  0  0  0  0  0
   38.7480   28.6490  -12.1490 H   0  0  0  0  0  0  0  0  0  0  0  0
   38.6774   29.5377  -13.3518 H   0  0  0  0  0  0  0  0  0  0  0  0
   36.7267   30.3944  -14.6230 H   0  0  0  0  0  0  0  0  0  0  0  0
   34.7441   29.1079  -16.4458 H   0  0  0  0  0  0  0  0  0  0  0  0
   35.7258   30.5828  -16.8380 H   0  0  0  0  0  0  0  0  0  0  0  0
   35.6335   28.0200  -18.4910 H   0  0  0  0  0  0  0  0  0  0  0  0
   34.7679   29.5474  -18.8713 H   0  0  0  0  0  0  0  0  0  0  0  0
   36.5638   29.5088  -18.8713 H   0  0  0  0  0  0  0  0  0  0  0  0
  1  2  1  0
  2  3  1  0
  3  4  1  0
  4  5  2  0
  5  6  1  0
  6  7  1  0
  7  8  1  0
  8  9  1  0
  9 10  2  0
 10 11  1  0
 11 12  2  0
 12 13  1  0
 13 14  1  0
 13 15  2  0
 15 16  1  0
 16 17  2  0
 16 18  1  0
 18 19  1  0
  6 20  2  0
 20 21  1  0
 21 22  2  0
 22 23  1  0
 23 24  1  0
 22  4  1  0
 18  7  2  0
 15  9  1  0
  1 25  1  0
  1 26  1  0
  1 27  1  0
  2 28  1  0
  2 29  1  0
  3 30  1  0
  3 31  1  0
  5 32  1  0
 10 33  1  0
 11 34  1  0
 12 35  1  0
 14 36  1  0
 19 37  1  0
 20 38  1  0
 21 39  1  0
 23 40  1  0
 23 41  1  0
 24 42  1  0
 24 43  1  0
 24 44  1  0
M  END
>  <meeko>  (9) 
{"is_sidechain": [false], "free_energy": -4.87, "intermolecular_energy": -6.233, "internal_energy": 1.063}

$$$$
