
     RDKit          3D

 37 40  0  0  0  0  0  0  0  0999 V2000
   -5.5895    2.1407   -0.0382 Cl  0  0  0  0  0  0  0  0  0  0  0  0
   -5.1546    0.5248    0.3837 C   0  0  0  0  0  0  0  0  0  0  0  0
   -6.0662   -0.2444    1.1105 C   0  0  0  0  0  0  0  0  0  0  0  0
   -5.7463   -1.5562    1.4669 C   0  0  0  0  0  0  0  0  0  0  0  0
   -4.5188   -2.1026    1.0920 C   0  0  0  0  0  0  0  0  0  0  0  0
   -3.6054   -1.3372    0.3653 C   0  0  0  0  0  0  0  0  0  0  0  0
   -3.9148   -0.0144    0.0257 C   0  0  0  0  0  0  0  0  0  0  0  0
   -3.0421    0.7422   -0.7254 O   0  0  0  0  0  0  0  0  0  0  0  0
   -1.7617    0.8847   -0.2410 C   0  0  0  0  0  0  0  0  0  0  0  0
   -1.4811    1.1861    1.0915 C   0  0  0  0  0  0  0  0  0  0  0  0
   -0.1541    1.3462    1.5005 C   0  0  0  0  0  0  0  0  0  0  0  0
    0.9042    1.2097    0.5910 C   0  0  0  0  0  0  0  0  0  0  0  0
    2.2184    1.4124    1.0608 N   0  0  0  0  0  0  0  0  0  0  0  0
    3.4243    1.0379    0.4472 C   0  0  0  0  0  0  0  0  0  0  0  0
    4.4139    1.9658    0.4331 N   0  0  0  0  0  0  0  0  0  0  0  0
    5.5924    1.6450   -0.1373 C   0  0  0  0  0  0  0  0  0  0  0  0
    5.9499    0.4831   -0.7076 N   0  0  0  0  0  0  0  0  0  0  0  0
    4.9572   -0.4149   -0.6427 C   0  0  0  0  0  0  0  0  0  0  0  0
    5.0375   -1.6954   -1.1177 N   0  0  0  0  0  0  0  0  0  0  0  0
    3.8609   -2.3556   -0.8718 C   0  0  0  0  0  0  0  0  0  0  0  0
    3.0139   -1.4752   -0.2311 C   0  0  0  0  0  0  0  0  0  0  0  0
    3.6973   -0.2315   -0.0936 C   0  0  0  0  0  0  0  0  0  0  0  0
    0.6011    0.9495   -0.7509 C   0  0  0  0  0  0  0  0  0  0  0  0
   -0.7244    0.7889   -1.1660 C   0  0  0  0  0  0  0  0  0  0  0  0
   -7.0281    0.1713    1.3994 H   0  0  0  0  0  0  0  0  0  0  0  0
   -6.4580   -2.1543    2.0312 H   0  0  0  0  0  0  0  0  0  0  0  0
   -4.2748   -3.1279    1.3604 H   0  0  0  0  0  0  0  0  0  0  0  0
   -2.6582   -1.7758    0.0622 H   0  0  0  0  0  0  0  0  0  0  0  0
   -2.2805    1.3091    1.8163 H   0  0  0  0  0  0  0  0  0  0  0  0
    0.0544    1.5725    2.5438 H   0  0  0  0  0  0  0  0  0  0  0  0
    2.3423    2.3731    1.3738 H   0  0  0  0  0  0  0  0  0  0  0  0
    6.3474    2.4256   -0.1346 H   0  0  0  0  0  0  0  0  0  0  0  0
    5.8579   -2.0770   -1.5658 H   0  0  0  0  0  0  0  0  0  0  0  0
    3.7314   -3.3888   -1.1655 H   0  0  0  0  0  0  0  0  0  0  0  0
    2.0097   -1.6966    0.1074 H   0  0  0  0  0  0  0  0  0  0  0  0
    1.3887    0.8868   -1.4972 H   0  0  0  0  0  0  0  0  0  0  0  0
   -0.9441    0.5926   -2.2120 H   0  0  0  0  0  0  0  0  0  0  0  0
  1  2  1  0
  2  3  2  0
  3  4  1  0
  4  5  2  0
  5  6  1  0
  6  7  2  0
  7  8  1  0
  8  9  1  0
  9 10  2  0
 10 11  1  0
 11 12  2  0
 12 13  1  0
 13 14  1  0
 14 15  2  0
 15 16  1  0
 16 17  2  0
 17 18  1  0
 18 19  1  0
 19 20  1  0
 20 21  2  0
 21 22  1  0
 12 23  1  0
 23 24  2  0
  7  2  1  0
 24  9  1  0
 22 14  1  0
 22 18  2  0
  3 25  1  0
  4 26  1  0
  5 27  1  0
  6 28  1  0
 10 29  1  0
 11 30  1  0
 13 31  1  0
 16 32  1  0
 19 33  1  0
 20 34  1  0
 21 35  1  0
 23 36  1  0
 24 37  1  0
M  END
$$$$
