@<TRIPOS>MOLECULE
MOL
   35    37     1     0     0
SMALL
bcc


@<TRIPOS>ATOM
      1 C1         180.0540    14.1770    44.7420 c3         1 MOL      -0.073800
      2 C2         180.3670    15.6240    44.4660 ca         1 MOL      -0.027300
      3 C3         179.8940    16.6080    45.3540 ca         1 MOL      -0.107000
      4 C4         180.1660    17.9700    45.1540 ca         1 MOL      -0.021800
      5 C5         179.6280    18.9740    46.0960 cc         1 MOL       0.136900
      6 O1         178.2400    18.9630    46.1640 os         1 MOL      -0.212200
      7 C6         177.6100    19.8460    47.0030 ca         1 MOL       0.189100
      8 C7         176.2150    19.8110    47.0300 ca         1 MOL      -0.206000
      9 C8         175.5110    20.6820    47.8630 ca         1 MOL      -0.030000
     10 C9         176.2020    21.5880    48.6710 ca         1 MOL      -0.210000
     11 C10        177.5940    21.6210    48.6440 ca         1 MOL       0.236100
     12 O2         178.2060    22.5310    49.4610 oh         1 MOL      -0.491100
     13 C11        178.2970    20.7490    47.8080 ca         1 MOL      -0.303600
     14 C12        179.7590    20.7510    47.7490 c          1 MOL       0.583900
     15 O3         180.4380    21.5130    48.4350 o          1 MOL      -0.590100
     16 C13        180.4090    19.7930    46.8250 cd         1 MOL      -0.056100
     17 O4         181.7910    19.7930    46.7870 oh         1 MOL      -0.488100
     18 C14        180.9130    18.3420    44.0310 ca         1 MOL      -0.100000
     19 C15        181.3920    17.3770    43.1420 ca         1 MOL      -0.089000
     20 C16        181.1320    16.0110    43.3440 ca         1 MOL      -0.156300
     21 C17        181.6690    14.9950    42.3590 c3         1 MOL       0.688200
     22 F1         181.5460    15.3970    41.0640 f          1 MOL      -0.236967
     23 F2         181.0420    13.7850    42.4280 f          1 MOL      -0.236967
     24 F3         182.9930    14.7300    42.5460 f          1 MOL      -0.236967
     25 H1         180.0180    14.0110    45.8290 hc         1 MOL       0.060367
     26 H2         179.0800    13.9220    44.2990 hc         1 MOL       0.060367
     27 H3         180.8350    13.5420    44.2990 hc         1 MOL       0.060367
     28 H4         179.2970    16.3020    46.2260 ha         1 MOL       0.154000
     29 H5         175.6700    19.0970    46.3950 ha         1 MOL       0.160000
     30 H6         174.4110    20.6550    47.8830 ha         1 MOL       0.146000
     31 H7         175.6470    22.2740    49.3280 ha         1 MOL       0.162000
     32 H8         178.9850    22.9670    49.1760 ho         1 MOL       0.463000
     33 H9         182.2780    19.3550    47.4570 ho         1 MOL       0.448000
     34 H10        181.1250    19.4050    43.8460 ha         1 MOL       0.167000
     35 H11        181.9830    17.6920    42.2690 ha         1 MOL       0.157000
@<TRIPOS>BOND
     1     1     2 1   
     2     2     3 ar  
     3     3     4 ar  
     4     4     5 1   
     5     5     6 1   
     6     6     7 1   
     7     7     8 ar  
     8     8     9 ar  
     9     9    10 ar  
    10    10    11 ar  
    11    11    12 1   
    12    11    13 ar  
    13    13    14 1   
    14    14    15 2   
    15    14    16 1   
    16    16    17 1   
    17     4    18 ar  
    18    18    19 ar  
    19    19    20 ar  
    20    20    21 1   
    21    21    22 1   
    22    21    23 1   
    23    21    24 1   
    24    20     2 ar  
    25    16     5 2   
    26    13     7 ar  
    27     1    25 1   
    28     1    26 1   
    29     1    27 1   
    30     3    28 1   
    31     8    29 1   
    32     9    30 1   
    33    10    31 1   
    34    12    32 1   
    35    17    33 1   
    36    18    34 1   
    37    19    35 1   
@<TRIPOS>SUBSTRUCTURE
     1 MOL         1 TEMP              0 ****  ****    0 ROOT
