cand_017_out
     RDKit          3D

 38 40  0  0  0  0  0  0  0  0999 V2000
   68.1530   38.8430    0.0670 C   0  0  0  0  0  0  0  0  0  0  0  0
   69.5120   38.8160    0.7520 C   0  0  0  0  0  0  0  0  0  0  0  0
   70.6490   38.9460   -0.2380 C   0  0  0  0  0  0  0  0  0  0  0  0
   70.6520   40.0590   -1.1030 C   0  0  0  0  0  0  0  0  0  0  0  0
   71.6700   40.2600   -2.0460 C   0  0  0  0  0  0  0  0  0  0  0  0
   71.6840   41.4400   -2.9350 C   0  0  0  0  0  0  0  0  0  0  0  0
   72.8010   42.2460   -2.7460 O   0  0  0  0  0  0  0  0  0  0  0  0
   72.9390   43.3770   -3.5080 C   0  0  0  0  0  0  0  0  0  0  0  0
   74.0670   44.1660   -3.2730 C   0  0  0  0  0  0  0  0  0  0  0  0
   74.2690   45.3310   -4.0170 C   0  0  0  0  0  0  0  0  0  0  0  0
   73.3450   45.7070   -4.9930 C   0  0  0  0  0  0  0  0  0  0  0  0
   72.2210   44.9190   -5.2250 C   0  0  0  0  0  0  0  0  0  0  0  0
   71.3580   45.3460   -6.1970 O   0  0  0  0  0  0  0  0  0  0  0  0
   72.0190   43.7540   -4.4810 C   0  0  0  0  0  0  0  0  0  0  0  0
   70.8510   42.8970   -4.6920 C   0  0  0  0  0  0  0  0  0  0  0  0
   69.9960   43.1570   -5.5390 O   0  0  0  0  0  0  0  0  0  0  0  0
   70.7250   41.6880   -3.8460 C   0  0  0  0  0  0  0  0  0  0  0  0
   69.6240   40.8800   -4.0630 O   0  0  0  0  0  0  0  0  0  0  0  0
   72.7120   39.3300   -2.1040 C   0  0  0  0  0  0  0  0  0  0  0  0
   72.7280   38.2230   -1.2520 C   0  0  0  0  0  0  0  0  0  0  0  0
   71.7070   38.0150   -0.3090 C   0  0  0  0  0  0  0  0  0  0  0  0
   71.7640   36.7870    0.5710 C   0  0  0  0  0  0  0  0  0  0  0  0
   72.8450   35.9970    0.3210 F   0  0  0  0  0  0  0  0  0  0  0  0
   70.6800   35.9690    0.4350 F   0  0  0  0  0  0  0  0  0  0  0  0
   67.3590   38.8588    0.8281 H   0  0  0  0  0  0  0  0  0  0  0  0
   68.0768   39.7428   -0.5611 H   0  0  0  0  0  0  0  0  0  0  0  0
   68.0411   37.9469   -0.5611 H   0  0  0  0  0  0  0  0  0  0  0  0
   69.5661   39.6506    1.4664 H   0  0  0  0  0  0  0  0  0  0  0  0
   69.6156   37.8473    1.2628 H   0  0  0  0  0  0  0  0  0  0  0  0
   69.8329   40.7902   -1.0364 H   0  0  0  0  0  0  0  0  0  0  0  0
   74.7953   43.8707   -2.5033 H   0  0  0  0  0  0  0  0  0  0  0  0
   75.1576   45.9528   -3.8333 H   0  0  0  0  0  0  0  0  0  0  0  0
   73.5046   46.6247   -5.5781 H   0  0  0  0  0  0  0  0  0  0  0  0
   70.9680   46.1950   -6.1370 H   0  0  0  0  0  0  0  0  0  0  0  0
   69.1400   40.9530   -4.8620 H   0  0  0  0  0  0  0  0  0  0  0  0
   73.5279   39.4713   -2.8281 H   0  0  0  0  0  0  0  0  0  0  0  0
   73.5550   37.5009   -1.3205 H   0  0  0  0  0  0  0  0  0  0  0  0
   71.8088   37.2163    1.5828 H   0  0  0  0  0  0  0  0  0  0  0  0
  1  2  1  0
  2  3  1  0
  3  4  2  0
  4  5  1  0
  5  6  1  0
  6  7  1  0
  7  8  1  0
  8  9  2  0
  9 10  1  0
 10 11  2  0
 11 12  1  0
 12 13  1  0
 12 14  2  0
 14 15  1  0
 15 16  2  0
 15 17  1  0
 17 18  1  0
  5 19  2  0
 19 20  1  0
 20 21  2  0
 21 22  1  0
 22 23  1  0
 22 24  1  0
 21  3  1  0
 17  6  2  0
 14  8  1  0
  1 25  1  0
  1 26  1  0
  1 27  1  0
  2 28  1  0
  2 29  1  0
  4 30  1  0
  9 31  1  0
 10 32  1  0
 11 33  1  0
 13 34  1  0
 18 35  1  0
 19 36  1  0
 20 37  1  0
 22 38  1  0
M  END
>  <meeko>  (1) 
{"is_sidechain": [false], "free_energy": -8.102, "intermolecular_energy": -9.996, "internal_energy": -0.498}

$$$$
cand_017_out
     RDKit          3D

 38 40  0  0  0  0  0  0  0  0999 V2000
   68.1470   39.6550   -0.9940 C   0  0  0  0  0  0  0  0  0  0  0  0
   69.0020   38.9880    0.0740 C   0  0  0  0  0  0  0  0  0  0  0  0
   70.4460   38.8580   -0.3560 C   0  0  0  0  0  0  0  0  0  0  0  0
   70.9610   39.8170   -1.2530 C   0  0  0  0  0  0  0  0  0  0  0  0
   72.2890   39.7740   -1.6980 C   0  0  0  0  0  0  0  0  0  0  0  0
   72.8340   40.7940   -2.6200 C   0  0  0  0  0  0  0  0  0  0  0  0
   73.9080   41.4910   -2.0790 O   0  0  0  0  0  0  0  0  0  0  0  0
   74.5080   42.4690   -2.8310 C   0  0  0  0  0  0  0  0  0  0  0  0
   75.5720   43.1550   -2.2430 C   0  0  0  0  0  0  0  0  0  0  0  0
   76.2290   44.1620   -2.9550 C   0  0  0  0  0  0  0  0  0  0  0  0
   75.8230   44.4820   -4.2510 C   0  0  0  0  0  0  0  0  0  0  0  0
   74.7610   43.7950   -4.8350 C   0  0  0  0  0  0  0  0  0  0  0  0
   74.4160   44.1590   -6.1080 O   0  0  0  0  0  0  0  0  0  0  0  0
   74.1040   42.7890   -4.1230 C   0  0  0  0  0  0  0  0  0  0  0  0
   72.9830   42.0440   -4.6980 C   0  0  0  0  0  0  0  0  0  0  0  0
   72.5710   42.2610   -5.8370 O   0  0  0  0  0  0  0  0  0  0  0  0
   72.3490   41.0010   -3.8580 C   0  0  0  0  0  0  0  0  0  0  0  0
   71.3000   40.2950   -4.4160 O   0  0  0  0  0  0  0  0  0  0  0  0
   73.1180   38.7570   -1.2150 C   0  0  0  0  0  0  0  0  0  0  0  0
   72.6270   37.8000   -0.3220 C   0  0  0  0  0  0  0  0  0  0  0  0
   71.2940   37.8360    0.1220 C   0  0  0  0  0  0  0  0  0  0  0  0
   70.8110   36.7630    1.0700 C   0  0  0  0  0  0  0  0  0  0  0  0
   71.7820   36.3150    1.9140 F   0  0  0  0  0  0  0  0  0  0  0  0
   70.3420   35.6480    0.4370 F   0  0  0  0  0  0  0  0  0  0  0  0
   67.3672   40.2633   -0.5124 H   0  0  0  0  0  0  0  0  0  0  0  0
   68.7804   40.3000   -1.6207 H   0  0  0  0  0  0  0  0  0  0  0  0
   67.6755   38.8837   -1.6207 H   0  0  0  0  0  0  0  0  0  0  0  0
   68.9579   39.5917    0.9925 H   0  0  0  0  0  0  0  0  0  0  0  0
   68.6055   37.9760    0.2437 H   0  0  0  0  0  0  0  0  0  0  0  0
   70.3020   40.6208   -1.6131 H   0  0  0  0  0  0  0  0  0  0  0  0
   75.8926   42.9034   -1.2213 H   0  0  0  0  0  0  0  0  0  0  0  0
   77.0677   44.7034   -2.4930 H   0  0  0  0  0  0  0  0  0  0  0  0
   76.3405   45.2752   -4.8105 H   0  0  0  0  0  0  0  0  0  0  0  0
   74.3870   43.5150   -6.7880 H   0  0  0  0  0  0  0  0  0  0  0  0
   70.4160   40.5370   -4.2210 H   0  0  0  0  0  0  0  0  0  0  0  0
   74.1675   38.7094   -1.5410 H   0  0  0  0  0  0  0  0  0  0  0  0
   73.2957   37.0049    0.0395 H   0  0  0  0  0  0  0  0  0  0  0  0
   70.0062   37.2718    1.6208 H   0  0  0  0  0  0  0  0  0  0  0  0
  1  2  1  0
  2  3  1  0
  3  4  2  0
  4  5  1  0
  5  6  1  0
  6  7  1  0
  7  8  1  0
  8  9  2  0
  9 10  1  0
 10 11  2  0
 11 12  1  0
 12 13  1  0
 12 14  2  0
 14 15  1  0
 15 16  2  0
 15 17  1  0
 17 18  1  0
  5 19  2  0
 19 20  1  0
 20 21  2  0
 21 22  1  0
 22 23  1  0
 22 24  1  0
 21  3  1  0
 17  6  2  0
 14  8  1  0
  1 25  1  0
  1 26  1  0
  1 27  1  0
  2 28  1  0
  2 29  1  0
  4 30  1  0
  9 31  1  0
 10 32  1  0
 11 33  1  0
 13 34  1  0
 18 35  1  0
 19 36  1  0
 20 37  1  0
 22 38  1  0
M  END
>  <meeko>  (2) 
{"is_sidechain": [false], "free_energy": -8.089, "intermolecular_energy": -9.959, "internal_energy": -0.519}

$$$$
cand_017_out
     RDKit          3D

 38 40  0  0  0  0  0  0  0  0999 V2000
   73.5740   39.9600   -1.6300 C   0  0  0  0  0  0  0  0  0  0  0  0
   72.9870   39.2670   -0.4080 C   0  0  0  0  0  0  0  0  0  0  0  0
   71.4740   39.2620   -0.4310 C   0  0  0  0  0  0  0  0  0  0  0  0
   70.8180   40.2930   -1.1340 C   0  0  0  0  0  0  0  0  0  0  0  0
   69.4200   40.3600   -1.2110 C   0  0  0  0  0  0  0  0  0  0  0  0
   68.7340   41.4270   -1.9700 C   0  0  0  0  0  0  0  0  0  0  0  0
   67.8460   42.1590   -1.1900 O   0  0  0  0  0  0  0  0  0  0  0  0
   67.1410   43.1820   -1.7710 C   0  0  0  0  0  0  0  0  0  0  0  0
   66.2490   43.8800   -0.9560 C   0  0  0  0  0  0  0  0  0  0  0  0
   65.5010   44.9350   -1.4840 C   0  0  0  0  0  0  0  0  0  0  0  0
   65.6440   45.2900   -2.8260 C   0  0  0  0  0  0  0  0  0  0  0  0
   66.5350   44.5920   -3.6380 C   0  0  0  0  0  0  0  0  0  0  0  0
   66.6260   44.9940   -4.9430 O   0  0  0  0  0  0  0  0  0  0  0  0
   67.2830   43.5370   -3.1090 C   0  0  0  0  0  0  0  0  0  0  0  0
   68.2290   42.7770   -3.9270 C   0  0  0  0  0  0  0  0  0  0  0  0
   68.4170   43.0340   -5.1150 O   0  0  0  0  0  0  0  0  0  0  0  0
   68.9670   41.6720   -3.2730 C   0  0  0  0  0  0  0  0  0  0  0  0
   69.8680   40.9690   -4.0510 O   0  0  0  0  0  0  0  0  0  0  0  0
   68.6720   39.3590   -0.5840 C   0  0  0  0  0  0  0  0  0  0  0  0
   69.3050   38.3280    0.1150 C   0  0  0  0  0  0  0  0  0  0  0  0
   70.7070   38.2600    0.2000 C   0  0  0  0  0  0  0  0  0  0  0  0
   71.3370   37.1350    0.9880 C   0  0  0  0  0  0  0  0  0  0  0  0
   72.1090   36.3120    0.2230 F   0  0  0  0  0  0  0  0  0  0  0  0
   70.4280   36.3160    1.5920 F   0  0  0  0  0  0  0  0  0  0  0  0
   74.2534   40.7620   -1.3057 H   0  0  0  0  0  0  0  0  0  0  0  0
   74.1317   39.2288   -2.2336 H   0  0  0  0  0  0  0  0  0  0  0  0
   72.7610   40.3898   -2.2336 H   0  0  0  0  0  0  0  0  0  0  0  0
   73.3452   38.2272   -0.3832 H   0  0  0  0  0  0  0  0  0  0  0  0
   73.3113   39.8211    0.4852 H   0  0  0  0  0  0  0  0  0  0  0  0
   71.4193   41.0656   -1.6355 H   0  0  0  0  0  0  0  0  0  0  0  0
   66.1349   43.5997    0.1015 H   0  0  0  0  0  0  0  0  0  0  0  0
   64.7987   45.4864   -0.8415 H   0  0  0  0  0  0  0  0  0  0  0  0
   65.0539   46.1199   -3.2421 H   0  0  0  0  0  0  0  0  0  0  0  0
   66.4040   44.4010   -5.6320 H   0  0  0  0  0  0  0  0  0  0  0  0
   70.7860   41.1350   -3.9700 H   0  0  0  0  0  0  0  0  0  0  0  0
   67.5738   39.3834   -0.6416 H   0  0  0  0  0  0  0  0  0  0  0  0
   68.6958   37.5558    0.6076 H   0  0  0  0  0  0  0  0  0  0  0  0
   71.9404   37.6714    1.7352 H   0  0  0  0  0  0  0  0  0  0  0  0
  1  2  1  0
  2  3  1  0
  3  4  2  0
  4  5  1  0
  5  6  1  0
  6  7  1  0
  7  8  1  0
  8  9  2  0
  9 10  1  0
 10 11  2  0
 11 12  1  0
 12 13  1  0
 12 14  2  0
 14 15  1  0
 15 16  2  0
 15 17  1  0
 17 18  1  0
  5 19  2  0
 19 20  1  0
 20 21  2  0
 21 22  1  0
 22 23  1  0
 22 24  1  0
 21  3  1  0
 17  6  2  0
 14  8  1  0
  1 25  1  0
  1 26  1  0
  1 27  1  0
  2 28  1  0
  2 29  1  0
  4 30  1  0
  9 31  1  0
 10 32  1  0
 11 33  1  0
 13 34  1  0
 18 35  1  0
 19 36  1  0
 20 37  1  0
 22 38  1  0
M  END
>  <meeko>  (3) 
{"is_sidechain": [false], "free_energy": -7.895, "intermolecular_energy": -9.824, "internal_energy": -0.415}

$$$$
cand_017_out
     RDKit          3D

 38 40  0  0  0  0  0  0  0  0999 V2000
   69.7170   42.9760   -1.3170 C   0  0  0  0  0  0  0  0  0  0  0  0
   70.2510   41.8460   -0.4470 C   0  0  0  0  0  0  0  0  0  0  0  0
   71.1830   40.9330   -1.2130 C   0  0  0  0  0  0  0  0  0  0  0  0
   72.1290   41.5230   -2.0760 C   0  0  0  0  0  0  0  0  0  0  0  0
   73.0330   40.7510   -2.8180 C   0  0  0  0  0  0  0  0  0  0  0  0
   74.0410   41.3720   -3.7040 C   0  0  0  0  0  0  0  0  0  0  0  0
   73.5090   41.7860   -4.9200 O   0  0  0  0  0  0  0  0  0  0  0  0
   74.3370   42.3790   -5.8380 C   0  0  0  0  0  0  0  0  0  0  0  0
   73.7650   42.7650   -7.0510 C   0  0  0  0  0  0  0  0  0  0  0  0
   74.5530   43.3770   -8.0290 C   0  0  0  0  0  0  0  0  0  0  0  0
   75.9100   43.6020   -7.7940 C   0  0  0  0  0  0  0  0  0  0  0  0
   76.4780   43.2170   -6.5830 C   0  0  0  0  0  0  0  0  0  0  0  0
   77.8130   43.4680   -6.4190 O   0  0  0  0  0  0  0  0  0  0  0  0
   75.6910   42.6040   -5.6050 C   0  0  0  0  0  0  0  0  0  0  0  0
   76.2470   42.1830   -4.3190 C   0  0  0  0  0  0  0  0  0  0  0  0
   77.4320   42.3530   -4.0340 O   0  0  0  0  0  0  0  0  0  0  0  0
   75.3300   41.5360   -3.3530 C   0  0  0  0  0  0  0  0  0  0  0  0
   75.8640   41.1530   -2.1360 O   0  0  0  0  0  0  0  0  0  0  0  0
   72.9950   39.3610   -2.6720 C   0  0  0  0  0  0  0  0  0  0  0  0
   72.0680   38.7590   -1.8170 C   0  0  0  0  0  0  0  0  0  0  0  0
   71.1550   39.5290   -1.0760 C   0  0  0  0  0  0  0  0  0  0  0  0
   70.1580   38.8230   -0.1850 C   0  0  0  0  0  0  0  0  0  0  0  0
   70.4220   37.4950   -0.0310 F   0  0  0  0  0  0  0  0  0  0  0  0
   68.8750   38.8840   -0.6470 F   0  0  0  0  0  0  0  0  0  0  0  0
   69.3353   43.7838   -0.6753 H   0  0  0  0  0  0  0  0  0  0  0  0
   70.5270   43.3640   -1.9521 H   0  0  0  0  0  0  0  0  0  0  0  0
   68.9030   42.5965   -1.9521 H   0  0  0  0  0  0  0  0  0  0  0  0
   70.7982   42.2802    0.4027 H   0  0  0  0  0  0  0  0  0  0  0  0
   69.3943   41.2471   -0.1043 H   0  0  0  0  0  0  0  0  0  0  0  0
   72.1582   42.6186   -2.1694 H   0  0  0  0  0  0  0  0  0  0  0  0
   72.6954   42.5877   -7.2368 H   0  0  0  0  0  0  0  0  0  0  0  0
   74.1032   43.6819   -8.9854 H   0  0  0  0  0  0  0  0  0  0  0  0
   76.5300   44.0830   -8.5648 H   0  0  0  0  0  0  0  0  0  0  0  0
   78.4440   42.8080   -6.6290 H   0  0  0  0  0  0  0  0  0  0  0  0
   75.8110   41.7300   -1.4000 H   0  0  0  0  0  0  0  0  0  0  0  0
   73.7021   38.7349   -3.2359 H   0  0  0  0  0  0  0  0  0  0  0  0
   72.0526   37.6632   -1.7222 H   0  0  0  0  0  0  0  0  0  0  0  0
   70.2595   39.3641    0.7673 H   0  0  0  0  0  0  0  0  0  0  0  0
  1  2  1  0
  2  3  1  0
  3  4  2  0
  4  5  1  0
  5  6  1  0
  6  7  1  0
  7  8  1  0
  8  9  2  0
  9 10  1  0
 10 11  2  0
 11 12  1  0
 12 13  1  0
 12 14  2  0
 14 15  1  0
 15 16  2  0
 15 17  1  0
 17 18  1  0
  5 19  2  0
 19 20  1  0
 20 21  2  0
 21 22  1  0
 22 23  1  0
 22 24  1  0
 21  3  1  0
 17  6  2  0
 14  8  1  0
  1 25  1  0
  1 26  1  0
  1 27  1  0
  2 28  1  0
  2 29  1  0
  4 30  1  0
  9 31  1  0
 10 32  1  0
 11 33  1  0
 13 34  1  0
 18 35  1  0
 19 36  1  0
 20 37  1  0
 22 38  1  0
M  END
>  <meeko>  (4) 
{"is_sidechain": [false], "free_energy": -7.802, "intermolecular_energy": -9.485, "internal_energy": -0.639}

$$$$
cand_017_out
     RDKit          3D

 38 40  0  0  0  0  0  0  0  0999 V2000
   68.9010   38.7370    0.5690 C   0  0  0  0  0  0  0  0  0  0  0  0
   70.4000   38.9790    0.6710 C   0  0  0  0  0  0  0  0  0  0  0  0
   71.0490   39.0990   -0.6910 C   0  0  0  0  0  0  0  0  0  0  0  0
   70.6380   40.1550   -1.5310 C   0  0  0  0  0  0  0  0  0  0  0  0
   71.1910   40.3420   -2.8050 C   0  0  0  0  0  0  0  0  0  0  0  0
   70.7770   41.4640   -3.6750 C   0  0  0  0  0  0  0  0  0  0  0  0
   69.4060   41.6850   -3.6550 O   0  0  0  0  0  0  0  0  0  0  0  0
   68.8870   42.6980   -4.4200 C   0  0  0  0  0  0  0  0  0  0  0  0
   67.5030   42.8740   -4.3830 C   0  0  0  0  0  0  0  0  0  0  0  0
   66.9090   43.8900   -5.1370 C   0  0  0  0  0  0  0  0  0  0  0  0
   67.6990   44.7270   -5.9270 C   0  0  0  0  0  0  0  0  0  0  0  0
   69.0800   44.5490   -5.9620 C   0  0  0  0  0  0  0  0  0  0  0  0
   69.7930   45.4050   -6.7560 O   0  0  0  0  0  0  0  0  0  0  0  0
   69.6730   43.5330   -5.2080 C   0  0  0  0  0  0  0  0  0  0  0  0
   71.1190   43.3100   -5.2170 C   0  0  0  0  0  0  0  0  0  0  0  0
   71.8820   44.0100   -5.8810 O   0  0  0  0  0  0  0  0  0  0  0  0
   71.6470   42.2020   -4.3890 C   0  0  0  0  0  0  0  0  0  0  0  0
   73.0170   42.0090   -4.3940 O   0  0  0  0  0  0  0  0  0  0  0  0
   72.1890   39.4600   -3.2310 C   0  0  0  0  0  0  0  0  0  0  0  0
   72.6110   38.4110   -2.4110 C   0  0  0  0  0  0  0  0  0  0  0  0
   72.0550   38.2160   -1.1350 C   0  0  0  0  0  0  0  0  0  0  0  0
   72.5340   37.0510   -0.3000 C   0  0  0  0  0  0  0  0  0  0  0  0
   71.5170   36.3400    0.2640 F   0  0  0  0  0  0  0  0  0  0  0  0
   73.3350   37.4200    0.7420 F   0  0  0  0  0  0  0  0  0  0  0  0
   68.4712   38.6676    1.5792 H   0  0  0  0  0  0  0  0  0  0  0  0
   68.4310   39.5709    0.0270 H   0  0  0  0  0  0  0  0  0  0  0  0
   68.7173   37.7976    0.0270 H   0  0  0  0  0  0  0  0  0  0  0  0
   70.5721   39.9108    1.2297 H   0  0  0  0  0  0  0  0  0  0  0  0
   70.8490   38.1172    1.1865 H   0  0  0  0  0  0  0  0  0  0  0  0
   69.8627   40.8503   -1.1766 H   0  0  0  0  0  0  0  0  0  0  0  0
   66.8804   42.2139   -3.7612 H   0  0  0  0  0  0  0  0  0  0  0  0
   65.8183   44.0301   -5.1079 H   0  0  0  0  0  0  0  0  0  0  0  0
   67.2315   45.5261   -6.5211 H   0  0  0  0  0  0  0  0  0  0  0  0
   69.9210   46.2940   -6.4910 H   0  0  0  0  0  0  0  0  0  0  0  0
   73.5500   42.4240   -3.7460 H   0  0  0  0  0  0  0  0  0  0  0  0
   72.6465   39.5937   -4.2223 H   0  0  0  0  0  0  0  0  0  0  0  0
   73.3924   37.7252   -2.7703 H   0  0  0  0  0  0  0  0  0  0  0  0
   73.0903   36.4441   -1.0295 H   0  0  0  0  0  0  0  0  0  0  0  0
  1  2  1  0
  2  3  1  0
  3  4  2  0
  4  5  1  0
  5  6  1  0
  6  7  1  0
  7  8  1  0
  8  9  2  0
  9 10  1  0
 10 11  2  0
 11 12  1  0
 12 13  1  0
 12 14  2  0
 14 15  1  0
 15 16  2  0
 15 17  1  0
 17 18  1  0
  5 19  2  0
 19 20  1  0
 20 21  2  0
 21 22  1  0
 22 23  1  0
 22 24  1  0
 21  3  1  0
 17  6  2  0
 14  8  1  0
  1 25  1  0
  1 26  1  0
  1 27  1  0
  2 28  1  0
  2 29  1  0
  4 30  1  0
  9 31  1  0
 10 32  1  0
 11 33  1  0
 13 34  1  0
 18 35  1  0
 19 36  1  0
 20 37  1  0
 22 38  1  0
M  END
>  <meeko>  (5) 
{"is_sidechain": [false], "free_energy": -7.667, "intermolecular_energy": -9.811, "internal_energy": -0.147}

$$$$
cand_017_out
     RDKit          3D

 38 40  0  0  0  0  0  0  0  0999 V2000
   76.5360   42.7290   -1.6050 C   0  0  0  0  0  0  0  0  0  0  0  0
   75.9290   43.5280   -2.7490 C   0  0  0  0  0  0  0  0  0  0  0  0
   74.7390   42.8220   -3.3630 C   0  0  0  0  0  0  0  0  0  0  0  0
   73.9700   41.9760   -2.5370 C   0  0  0  0  0  0  0  0  0  0  0  0
   72.8490   41.2900   -3.0230 C   0  0  0  0  0  0  0  0  0  0  0  0
   72.0290   40.4230   -2.1510 C   0  0  0  0  0  0  0  0  0  0  0  0
   70.6820   40.7630   -2.1630 O   0  0  0  0  0  0  0  0  0  0  0  0
   69.8080   40.0370   -1.3950 C   0  0  0  0  0  0  0  0  0  0  0  0
   68.4670   40.4230   -1.4240 C   0  0  0  0  0  0  0  0  0  0  0  0
   67.5240   39.7240   -0.6660 C   0  0  0  0  0  0  0  0  0  0  0  0
   67.9220   38.6420    0.1200 C   0  0  0  0  0  0  0  0  0  0  0  0
   69.2610   38.2580    0.1480 C   0  0  0  0  0  0  0  0  0  0  0  0
   69.5810   37.1890    0.9390 O   0  0  0  0  0  0  0  0  0  0  0  0
   70.2040   38.9570   -0.6100 C   0  0  0  0  0  0  0  0  0  0  0  0
   71.6200   38.5890   -0.6090 C   0  0  0  0  0  0  0  0  0  0  0  0
   72.0470   37.6430    0.0510 O   0  0  0  0  0  0  0  0  0  0  0  0
   72.5400   39.3990   -1.4410 C   0  0  0  0  0  0  0  0  0  0  0  0
   73.8730   39.0340   -1.4430 O   0  0  0  0  0  0  0  0  0  0  0  0
   72.4860   41.4760   -4.3610 C   0  0  0  0  0  0  0  0  0  0  0  0
   73.2330   42.3130   -5.1930 C   0  0  0  0  0  0  0  0  0  0  0  0
   74.3620   42.9980   -4.7110 C   0  0  0  0  0  0  0  0  0  0  0  0
   75.1460   43.8730   -5.6620 C   0  0  0  0  0  0  0  0  0  0  0  0
   74.4520   44.2000   -6.7880 F   0  0  0  0  0  0  0  0  0  0  0  0
   76.3010   43.2970   -6.1060 F   0  0  0  0  0  0  0  0  0  0  0  0
   76.2106   43.1573   -0.6455 H   0  0  0  0  0  0  0  0  0  0  0  0
   76.2029   41.6827   -1.6713 H   0  0  0  0  0  0  0  0  0  0  0  0
   77.6333   42.7694   -1.6713 H   0  0  0  0  0  0  0  0  0  0  0  0
   75.6030   44.5061   -2.3656 H   0  0  0  0  0  0  0  0  0  0  0  0
   76.6963   43.6428   -3.5288 H   0  0  0  0  0  0  0  0  0  0  0  0
   74.2581   41.8514   -1.4827 H   0  0  0  0  0  0  0  0  0  0  0  0
   68.1529   41.2765   -2.0428 H   0  0  0  0  0  0  0  0  0  0  0  0
   66.4668   40.0270   -0.6889 H   0  0  0  0  0  0  0  0  0  0  0  0
   67.1792   38.0926    0.7170 H   0  0  0  0  0  0  0  0  0  0  0  0
   70.3490   37.2150    1.4740 H   0  0  0  0  0  0  0  0  0  0  0  0
   74.1120   38.1330   -1.3520 H   0  0  0  0  0  0  0  0  0  0  0  0
   71.6027   40.9575   -4.7623 H   0  0  0  0  0  0  0  0  0  0  0  0
   72.9326   42.4384   -6.2437 H   0  0  0  0  0  0  0  0  0  0  0  0
   75.3586   44.7627   -5.0510 H   0  0  0  0  0  0  0  0  0  0  0  0
  1  2  1  0
  2  3  1  0
  3  4  2  0
  4  5  1  0
  5  6  1  0
  6  7  1  0
  7  8  1  0
  8  9  2  0
  9 10  1  0
 10 11  2  0
 11 12  1  0
 12 13  1  0
 12 14  2  0
 14 15  1  0
 15 16  2  0
 15 17  1  0
 17 18  1  0
  5 19  2  0
 19 20  1  0
 20 21  2  0
 21 22  1  0
 22 23  1  0
 22 24  1  0
 21  3  1  0
 17  6  2  0
 14  8  1  0
  1 25  1  0
  1 26  1  0
  1 27  1  0
  2 28  1  0
  2 29  1  0
  4 30  1  0
  9 31  1  0
 10 32  1  0
 11 33  1  0
 13 34  1  0
 18 35  1  0
 19 36  1  0
 20 37  1  0
 22 38  1  0
M  END
>  <meeko>  (6) 
{"is_sidechain": [false], "free_energy": -7.637, "intermolecular_energy": -9.447, "internal_energy": -0.474}

$$$$
cand_017_out
     RDKit          3D

 38 40  0  0  0  0  0  0  0  0999 V2000
   70.3560   37.5730    0.4510 C   0  0  0  0  0  0  0  0  0  0  0  0
   69.5560   38.8560    0.6290 C   0  0  0  0  0  0  0  0  0  0  0  0
   69.6620   39.7620   -0.5780 C   0  0  0  0  0  0  0  0  0  0  0  0
   70.9130   40.3490   -0.8590 C   0  0  0  0  0  0  0  0  0  0  0  0
   71.1000   41.1960   -1.9600 C   0  0  0  0  0  0  0  0  0  0  0  0
   72.4180   41.7900   -2.2690 C   0  0  0  0  0  0  0  0  0  0  0  0
   72.3390   43.1380   -2.6000 O   0  0  0  0  0  0  0  0  0  0  0  0
   73.4910   43.8130   -2.9100 C   0  0  0  0  0  0  0  0  0  0  0  0
   73.3630   45.1600   -3.2530 C   0  0  0  0  0  0  0  0  0  0  0  0
   74.4990   45.9070   -3.5770 C   0  0  0  0  0  0  0  0  0  0  0  0
   75.7590   45.3080   -3.5580 C   0  0  0  0  0  0  0  0  0  0  0  0
   75.8840   43.9640   -3.2150 C   0  0  0  0  0  0  0  0  0  0  0  0
   77.1480   43.4420   -3.2160 O   0  0  0  0  0  0  0  0  0  0  0  0
   74.7490   43.2170   -2.8910 C   0  0  0  0  0  0  0  0  0  0  0  0
   74.8340   41.8030   -2.5260 C   0  0  0  0  0  0  0  0  0  0  0  0
   75.9090   41.2060   -2.4790 O   0  0  0  0  0  0  0  0  0  0  0  0
   73.5710   41.0980   -2.2080 C   0  0  0  0  0  0  0  0  0  0  0  0
   73.6650   39.7650   -1.8520 O   0  0  0  0  0  0  0  0  0  0  0  0
   70.0110   41.4390   -2.8030 C   0  0  0  0  0  0  0  0  0  0  0  0
   68.7650   40.8630   -2.5420 C   0  0  0  0  0  0  0  0  0  0  0  0
   68.5710   40.0190   -1.4350 C   0  0  0  0  0  0  0  0  0  0  0  0
   67.1960   39.4410   -1.1890 C   0  0  0  0  0  0  0  0  0  0  0  0
   66.5970   38.9790   -2.3220 F   0  0  0  0  0  0  0  0  0  0  0  0
   66.3160   40.3390   -0.6570 F   0  0  0  0  0  0  0  0  0  0  0  0
   70.6128   37.1611    1.4381 H   0  0  0  0  0  0  0  0  0  0  0  0
   69.7545   36.8402   -0.1069 H   0  0  0  0  0  0  0  0  0  0  0  0
   71.2787   37.7907   -0.1069 H   0  0  0  0  0  0  0  0  0  0  0  0
   68.4987   38.5963    0.7864 H   0  0  0  0  0  0  0  0  0  0  0  0
   69.9666   39.3950    1.4956 H   0  0  0  0  0  0  0  0  0  0  0  0
   71.7649   40.1365   -0.1964 H   0  0  0  0  0  0  0  0  0  0  0  0
   72.3699   45.6327   -3.2683 H   0  0  0  0  0  0  0  0  0  0  0  0
   74.3996   46.9686   -3.8473 H   0  0  0  0  0  0  0  0  0  0  0  0
   76.6525   45.8965   -3.8136 H   0  0  0  0  0  0  0  0  0  0  0  0
   77.8280   43.8590   -3.7070 H   0  0  0  0  0  0  0  0  0  0  0  0
   74.3630   39.4780   -1.2970 H   0  0  0  0  0  0  0  0  0  0  0  0
   70.1366   42.0903   -3.6805 H   0  0  0  0  0  0  0  0  0  0  0  0
   67.9208   41.0739   -3.2150 H   0  0  0  0  0  0  0  0  0  0  0  0
   67.4000   38.6225   -0.4829 H   0  0  0  0  0  0  0  0  0  0  0  0
  1  2  1  0
  2  3  1  0
  3  4  2  0
  4  5  1  0
  5  6  1  0
  6  7  1  0
  7  8  1  0
  8  9  2  0
  9 10  1  0
 10 11  2  0
 11 12  1  0
 12 13  1  0
 12 14  2  0
 14 15  1  0
 15 16  2  0
 15 17  1  0
 17 18  1  0
  5 19  2  0
 19 20  1  0
 20 21  2  0
 21 22  1  0
 22 23  1  0
 22 24  1  0
 21  3  1  0
 17  6  2  0
 14  8  1  0
  1 25  1  0
  1 26  1  0
  1 27  1  0
  2 28  1  0
  2 29  1  0
  4 30  1  0
  9 31  1  0
 10 32  1  0
 11 33  1  0
 13 34  1  0
 18 35  1  0
 19 36  1  0
 20 37  1  0
 22 38  1  0
M  END
>  <meeko>  (7) 
{"is_sidechain": [false], "free_energy": -7.615, "intermolecular_energy": -9.574, "internal_energy": -0.319}

$$$$
cand_017_out
     RDKit          3D

 38 40  0  0  0  0  0  0  0  0999 V2000
   76.3010   43.0360   -1.8310 C   0  0  0  0  0  0  0  0  0  0  0  0
   75.5130   43.8450   -2.8520 C   0  0  0  0  0  0  0  0  0  0  0  0
   74.3960   43.0370   -3.4750 C   0  0  0  0  0  0  0  0  0  0  0  0
   73.6340   42.2000   -2.6340 C   0  0  0  0  0  0  0  0  0  0  0  0
   72.5770   41.4230   -3.1280 C   0  0  0  0  0  0  0  0  0  0  0  0
   71.7630   40.5650   -2.2420 C   0  0  0  0  0  0  0  0  0  0  0  0
   72.4980   39.5420   -1.6550 O   0  0  0  0  0  0  0  0  0  0  0  0
   71.8630   38.6710   -0.8080 C   0  0  0  0  0  0  0  0  0  0  0  0
   72.6360   37.6490   -0.2530 C   0  0  0  0  0  0  0  0  0  0  0  0
   72.0510   36.7280    0.6200 C   0  0  0  0  0  0  0  0  0  0  0  0
   70.6950   36.8290    0.9370 C   0  0  0  0  0  0  0  0  0  0  0  0
   69.9260   37.8490    0.3830 C   0  0  0  0  0  0  0  0  0  0  0  0
   68.6050   37.8890    0.7370 O   0  0  0  0  0  0  0  0  0  0  0  0
   70.5110   38.7700   -0.4900 C   0  0  0  0  0  0  0  0  0  0  0  0
   69.7400   39.8560   -1.0960 C   0  0  0  0  0  0  0  0  0  0  0  0
   68.5430   40.0160   -0.8600 O   0  0  0  0  0  0  0  0  0  0  0  0
   70.4530   40.7740   -2.0140 C   0  0  0  0  0  0  0  0  0  0  0  0
   69.7170   41.8040   -2.5700 O   0  0  0  0  0  0  0  0  0  0  0  0
   72.2730   41.5050   -4.4900 C   0  0  0  0  0  0  0  0  0  0  0  0
   73.0150   42.3320   -5.3380 C   0  0  0  0  0  0  0  0  0  0  0  0
   74.0790   43.1090   -4.8480 C   0  0  0  0  0  0  0  0  0  0  0  0
   74.8620   43.9680   -5.8140 C   0  0  0  0  0  0  0  0  0  0  0  0
   74.2180   44.1680   -6.9980 F   0  0  0  0  0  0  0  0  0  0  0  0
   76.0760   43.4420   -6.1500 F   0  0  0  0  0  0  0  0  0  0  0  0
   76.0055   43.3394   -0.8158 H   0  0  0  0  0  0  0  0  0  0  0  0
   76.0900   41.9654   -1.9698 H   0  0  0  0  0  0  0  0  0  0  0  0
   77.3768   43.2187   -1.9698 H   0  0  0  0  0  0  0  0  0  0  0  0
   75.0794   44.7232   -2.3512 H   0  0  0  0  0  0  0  0  0  0  0  0
   76.2035   44.1450   -3.6540 H   0  0  0  0  0  0  0  0  0  0  0  0
   73.8755   42.1556   -1.5617 H   0  0  0  0  0  0  0  0  0  0  0  0
   73.7043   37.5690   -0.5028 H   0  0  0  0  0  0  0  0  0  0  0  0
   72.6593   35.9228    1.0578 H   0  0  0  0  0  0  0  0  0  0  0  0
   70.2347   36.1034    1.6238 H   0  0  0  0  0  0  0  0  0  0  0  0
   68.0450   38.5510    0.3830 H   0  0  0  0  0  0  0  0  0  0  0  0
   68.8720   42.0160   -2.2250 H   0  0  0  0  0  0  0  0  0  0  0  0
   71.4412   40.9125   -4.8986 H   0  0  0  0  0  0  0  0  0  0  0  0
   72.7619   42.3756   -6.4076 H   0  0  0  0  0  0  0  0  0  0  0  0
   74.9803   44.9100   -5.2584 H   0  0  0  0  0  0  0  0  0  0  0  0
  1  2  1  0
  2  3  1  0
  3  4  2  0
  4  5  1  0
  5  6  1  0
  6  7  1  0
  7  8  1  0
  8  9  2  0
  9 10  1  0
 10 11  2  0
 11 12  1  0
 12 13  1  0
 12 14  2  0
 14 15  1  0
 15 16  2  0
 15 17  1  0
 17 18  1  0
  5 19  2  0
 19 20  1  0
 20 21  2  0
 21 22  1  0
 22 23  1  0
 22 24  1  0
 21  3  1  0
 17  6  2  0
 14  8  1  0
  1 25  1  0
  1 26  1  0
  1 27  1  0
  2 28  1  0
  2 29  1  0
  4 30  1  0
  9 31  1  0
 10 32  1  0
 11 33  1  0
 13 34  1  0
 18 35  1  0
 19 36  1  0
 20 37  1  0
 22 38  1  0
M  END
>  <meeko>  (8) 
{"is_sidechain": [false], "free_energy": -7.605, "intermolecular_energy": -9.342, "internal_energy": -0.539}

$$$$
cand_017_out
     RDKit          3D

 38 40  0  0  0  0  0  0  0  0999 V2000
   76.2290   42.4780   -1.7130 C   0  0  0  0  0  0  0  0  0  0  0  0
   75.4280   43.5510   -2.4380 C   0  0  0  0  0  0  0  0  0  0  0  0
   74.4080   42.9550   -3.3840 C   0  0  0  0  0  0  0  0  0  0  0  0
   73.2000   42.4720   -2.8400 C   0  0  0  0  0  0  0  0  0  0  0  0
   72.2000   41.9100   -3.6460 C   0  0  0  0  0  0  0  0  0  0  0  0
   70.9240   41.4260   -3.0770 C   0  0  0  0  0  0  0  0  0  0  0  0
   71.1040   40.5610   -2.0050 O   0  0  0  0  0  0  0  0  0  0  0  0
   70.0000   40.0370   -1.3830 C   0  0  0  0  0  0  0  0  0  0  0  0
   70.2270   39.1600   -0.3220 C   0  0  0  0  0  0  0  0  0  0  0  0
   69.1450   38.5930    0.3560 C   0  0  0  0  0  0  0  0  0  0  0  0
   67.8390   38.9010   -0.0280 C   0  0  0  0  0  0  0  0  0  0  0  0
   67.6150   39.7770   -1.0870 C   0  0  0  0  0  0  0  0  0  0  0  0
   66.3110   40.0360   -1.4090 O   0  0  0  0  0  0  0  0  0  0  0  0
   68.6970   40.3440   -1.7650 C   0  0  0  0  0  0  0  0  0  0  0  0
   68.5070   41.2680   -2.8840 C   0  0  0  0  0  0  0  0  0  0  0  0
   67.3880   41.5950   -3.2770 O   0  0  0  0  0  0  0  0  0  0  0  0
   69.7200   41.8080   -3.5410 C   0  0  0  0  0  0  0  0  0  0  0  0
   69.5280   42.6900   -4.5890 O   0  0  0  0  0  0  0  0  0  0  0  0
   72.4150   41.8530   -5.0260 C   0  0  0  0  0  0  0  0  0  0  0  0
   73.6040   42.3300   -5.5830 C   0  0  0  0  0  0  0  0  0  0  0  0
   74.6120   42.8880   -4.7790 C   0  0  0  0  0  0  0  0  0  0  0  0
   75.8870   43.3690   -5.4330 C   0  0  0  0  0  0  0  0  0  0  0  0
   75.7870   43.4800   -6.7870 F   0  0  0  0  0  0  0  0  0  0  0  0
   76.9540   42.5440   -5.2180 F   0  0  0  0  0  0  0  0  0  0  0  0
   76.1265   42.6153   -0.6264 H   0  0  0  0  0  0  0  0  0  0  0  0
   75.8499   41.4845   -1.9944 H   0  0  0  0  0  0  0  0  0  0  0  0
   77.2893   42.5590   -1.9944 H   0  0  0  0  0  0  0  0  0  0  0  0
   74.9037   44.1671   -1.6927 H   0  0  0  0  0  0  0  0  0  0  0  0
   76.1294   44.1556   -3.0317 H   0  0  0  0  0  0  0  0  0  0  0  0
   73.0379   42.5380   -1.7540 H   0  0  0  0  0  0  0  0  0  0  0  0
   71.2560   38.9154   -0.0198 H   0  0  0  0  0  0  0  0  0  0  0  0
   69.3227   37.9027    1.1938 H   0  0  0  0  0  0  0  0  0  0  0  0
   66.9878   38.4524    0.5052 H   0  0  0  0  0  0  0  0  0  0  0  0
   66.1090   40.5640   -2.1550 H   0  0  0  0  0  0  0  0  0  0  0  0
   68.7370   42.6580   -5.0880 H   0  0  0  0  0  0  0  0  0  0  0  0
   71.6397   41.4280   -5.6804 H   0  0  0  0  0  0  0  0  0  0  0  0
   73.7538   42.2676   -6.6710 H   0  0  0  0  0  0  0  0  0  0  0  0
   76.0453   44.3502   -4.9617 H   0  0  0  0  0  0  0  0  0  0  0  0
  1  2  1  0
  2  3  1  0
  3  4  2  0
  4  5  1  0
  5  6  1  0
  6  7  1  0
  7  8  1  0
  8  9  2  0
  9 10  1  0
 10 11  2  0
 11 12  1  0
 12 13  1  0
 12 14  2  0
 14 15  1  0
 15 16  2  0
 15 17  1  0
 17 18  1  0
  5 19  2  0
 19 20  1  0
 20 21  2  0
 21 22  1  0
 22 23  1  0
 22 24  1  0
 21  3  1  0
 17  6  2  0
 14  8  1  0
  1 25  1  0
  1 26  1  0
  1 27  1  0
  2 28  1  0
  2 29  1  0
  4 30  1  0
  9 31  1  0
 10 32  1  0
 11 33  1  0
 13 34  1  0
 18 35  1  0
 19 36  1  0
 20 37  1  0
 22 38  1  0
M  END
>  <meeko>  (9) 
{"is_sidechain": [false], "free_energy": -7.57, "intermolecular_energy": -9.388, "internal_energy": -0.45}

$$$$
