cand_029_out
     RDKit          3D

 50 53  0  0  0  0  0  0  0  0999 V2000
   76.3620   42.6320   -1.7160 C   0  0  0  0  0  0  0  0  0  0  0  0
   75.7560   43.4080   -2.8760 C   0  0  0  0  0  0  0  0  0  0  0  0
   74.5690   42.6920   -3.4800 C   0  0  0  0  0  0  0  0  0  0  0  0
   73.7450   41.9180   -2.6400 C   0  0  0  0  0  0  0  0  0  0  0  0
   72.6420   41.2100   -3.1410 C   0  0  0  0  0  0  0  0  0  0  0  0
   71.7860   40.4340   -2.2190 C   0  0  0  0  0  0  0  0  0  0  0  0
   72.4640   39.3890   -1.6020 O   0  0  0  0  0  0  0  0  0  0  0  0
   71.7870   38.5850   -0.7210 C   0  0  0  0  0  0  0  0  0  0  0  0
   72.5100   37.5580   -0.1160 C   0  0  0  0  0  0  0  0  0  0  0  0
   71.8800   36.7020    0.7900 C   0  0  0  0  0  0  0  0  0  0  0  0
   70.5270   36.8730    1.0890 C   0  0  0  0  0  0  0  0  0  0  0  0
   69.8070   37.9000    0.4830 C   0  0  0  0  0  0  0  0  0  0  0  0
   68.4860   38.0110    0.8220 O   0  0  0  0  0  0  0  0  0  0  0  0
   70.4390   38.7570   -0.4220 C   0  0  0  0  0  0  0  0  0  0  0  0
   69.7190   39.8480   -1.0810 C   0  0  0  0  0  0  0  0  0  0  0  0
   68.5260   40.0590   -0.8740 O   0  0  0  0  0  0  0  0  0  0  0  0
   70.4820   40.7030   -2.0200 C   0  0  0  0  0  0  0  0  0  0  0  0
   69.7890   41.7220   -2.6460 O   0  0  0  0  0  0  0  0  0  0  0  0
   72.3640   41.3010   -4.5080 C   0  0  0  0  0  0  0  0  0  0  0  0
   73.1790   42.0580   -5.3540 C   0  0  0  0  0  0  0  0  0  0  0  0
   74.2930   42.7550   -4.8610 C   0  0  0  0  0  0  0  0  0  0  0  0
   75.1250   43.5250   -5.7010 N   0  0  0  0  0  0  0  0  0  0  0  0
   75.9020   42.7180   -6.6550 C   0  0  0  0  0  0  0  0  0  0  0  0
   76.9390   43.6150   -7.3340 C   0  0  0  0  0  0  0  0  0  0  0  0
   76.2750   44.8180   -8.0010 C   0  0  0  0  0  0  0  0  0  0  0  0
   75.3920   45.5730   -7.0080 C   0  0  0  0  0  0  0  0  0  0  0  0
   74.3920   44.6370   -6.3270 C   0  0  0  0  0  0  0  0  0  0  0  0
   76.0214   43.0682   -0.7653 H   0  0  0  0  0  0  0  0  0  0  0  0
   76.0435   41.5806   -1.7720 H   0  0  0  0  0  0  0  0  0  0  0  0
   77.4592   42.6862   -1.7720 H   0  0  0  0  0  0  0  0  0  0  0  0
   75.4285   44.3928   -2.5115 H   0  0  0  0  0  0  0  0  0  0  0  0
   76.5251   43.5072   -3.6562 H   0  0  0  0  0  0  0  0  0  0  0  0
   73.9717   41.8673   -1.5648 H   0  0  0  0  0  0  0  0  0  0  0  0
   73.5757   37.4220   -0.3520 H   0  0  0  0  0  0  0  0  0  0  0  0
   72.4504   35.8922    1.2685 H   0  0  0  0  0  0  0  0  0  0  0  0
   70.0305   36.1981    1.8017 H   0  0  0  0  0  0  0  0  0  0  0  0
   67.9610   37.2410    0.9200 H   0  0  0  0  0  0  0  0  0  0  0  0
   69.4330   42.4270   -2.1410 H   0  0  0  0  0  0  0  0  0  0  0  0
   71.4939   40.7708   -4.9224 H   0  0  0  0  0  0  0  0  0  0  0  0
   72.9428   42.1086   -6.4272 H   0  0  0  0  0  0  0  0  0  0  0  0
   76.4122   41.9035   -6.1199 H   0  0  0  0  0  0  0  0  0  0  0  0
   75.2303   42.2863   -7.4116 H   0  0  0  0  0  0  0  0  0  0  0  0
   77.6540   43.9727   -6.5785 H   0  0  0  0  0  0  0  0  0  0  0  0
   77.4548   43.0277   -8.1080 H   0  0  0  0  0  0  0  0  0  0  0  0
   77.0544   45.4964   -8.3782 H   0  0  0  0  0  0  0  0  0  0  0  0
   75.6457   44.4584   -8.8284 H   0  0  0  0  0  0  0  0  0  0  0  0
   76.0304   46.0345   -6.2402 H   0  0  0  0  0  0  0  0  0  0  0  0
   74.8283   46.3400   -7.5594 H   0  0  0  0  0  0  0  0  0  0  0  0
   73.8342   45.1905   -5.5573 H   0  0  0  0  0  0  0  0  0  0  0  0
   73.6853   44.2430   -7.0722 H   0  0  0  0  0  0  0  0  0  0  0  0
  1  2  1  0
  2  3  1  0
  3  4  2  0
  4  5  1  0
  5  6  1  0
  6  7  1  0
  7  8  1  0
  8  9  2  0
  9 10  1  0
 10 11  2  0
 11 12  1  0
 12 13  1  0
 12 14  2  0
 14 15  1  0
 15 16  2  0
 15 17  1  0
 17 18  1  0
  5 19  2  0
 19 20  1  0
 20 21  2  0
 21 22  1  0
 22 23  1  0
 23 24  1  0
 24 25  1  0
 25 26  1  0
 26 27  1  0
 21  3  1  0
 27 22  1  0
 17  6  2  0
 14  8  1  0
  1 28  1  0
  1 29  1  0
  1 30  1  0
  2 31  1  0
  2 32  1  0
  4 33  1  0
  9 34  1  0
 10 35  1  0
 11 36  1  0
 13 37  1  0
 18 38  1  0
 19 39  1  0
 20 40  1  0
 23 41  1  0
 23 42  1  0
 24 43  1  0
 24 44  1  0
 25 45  1  0
 25 46  1  0
 26 47  1  0
 26 48  1  0
 27 49  1  0
 27 50  1  0
M  END
>  <meeko>  (1) 
{"is_sidechain": [false], "free_energy": -7.97, "intermolecular_energy": -9.834, "internal_energy": -0.722}

$$$$
cand_029_out
     RDKit          3D

 50 53  0  0  0  0  0  0  0  0999 V2000
   76.3110   42.7860   -1.7520 C   0  0  0  0  0  0  0  0  0  0  0  0
   75.7500   43.4730   -2.9880 C   0  0  0  0  0  0  0  0  0  0  0  0
   74.5740   42.7220   -3.5720 C   0  0  0  0  0  0  0  0  0  0  0  0
   73.8090   41.8970   -2.7240 C   0  0  0  0  0  0  0  0  0  0  0  0
   72.7200   41.1550   -3.2060 C   0  0  0  0  0  0  0  0  0  0  0  0
   71.9260   40.3250   -2.2760 C   0  0  0  0  0  0  0  0  0  0  0  0
   70.5770   40.6650   -2.2650 O   0  0  0  0  0  0  0  0  0  0  0  0
   69.7240   39.9740   -1.4440 C   0  0  0  0  0  0  0  0  0  0  0  0
   68.3780   40.3400   -1.4750 C   0  0  0  0  0  0  0  0  0  0  0  0
   67.4570   39.6780   -0.6620 C   0  0  0  0  0  0  0  0  0  0  0  0
   67.8810   38.6510    0.1830 C   0  0  0  0  0  0  0  0  0  0  0  0
   69.2250   38.2870    0.2120 C   0  0  0  0  0  0  0  0  0  0  0  0
   69.5720   37.2730    1.0630 O   0  0  0  0  0  0  0  0  0  0  0  0
   70.1460   38.9500   -0.6020 C   0  0  0  0  0  0  0  0  0  0  0  0
   71.5680   38.5990   -0.6020 C   0  0  0  0  0  0  0  0  0  0  0  0
   72.0190   37.7110    0.1180 O   0  0  0  0  0  0  0  0  0  0  0  0
   72.4610   39.3580   -1.5070 C   0  0  0  0  0  0  0  0  0  0  0  0
   73.8030   39.0280   -1.4880 O   0  0  0  0  0  0  0  0  0  0  0  0
   72.3950   41.2640   -4.5610 C   0  0  0  0  0  0  0  0  0  0  0  0
   73.1510   42.0710   -5.4150 C   0  0  0  0  0  0  0  0  0  0  0  0
   74.2510   42.8030   -4.9410 C   0  0  0  0  0  0  0  0  0  0  0  0
   75.0240   43.6240   -5.7890 N   0  0  0  0  0  0  0  0  0  0  0  0
   75.6600   42.8900   -6.8940 C   0  0  0  0  0  0  0  0  0  0  0  0
   76.6600   43.8140   -7.5930 C   0  0  0  0  0  0  0  0  0  0  0  0
   75.9830   45.0990   -8.0660 C   0  0  0  0  0  0  0  0  0  0  0  0
   75.2440   45.7820   -6.9160 C   0  0  0  0  0  0  0  0  0  0  0  0
   74.2800   44.8170   -6.2240 C   0  0  0  0  0  0  0  0  0  0  0  0
   75.9133   43.2731   -0.8495 H   0  0  0  0  0  0  0  0  0  0  0  0
   76.0170   41.7260   -1.7564 H   0  0  0  0  0  0  0  0  0  0  0  0
   77.4083   42.8622   -1.7564 H   0  0  0  0  0  0  0  0  0  0  0  0
   75.4224   44.4863   -2.7126 H   0  0  0  0  0  0  0  0  0  0  0  0
   76.5441   43.5032   -3.7486 H   0  0  0  0  0  0  0  0  0  0  0  0
   74.0719   41.8330   -1.6578 H   0  0  0  0  0  0  0  0  0  0  0  0
   68.0430   41.1498   -2.1398 H   0  0  0  0  0  0  0  0  0  0  0  0
   66.3956   39.9658   -0.6871 H   0  0  0  0  0  0  0  0  0  0  0  0
   67.1550   38.1302    0.8247 H   0  0  0  0  0  0  0  0  0  0  0  0
   69.3040   36.3940    0.8780 H   0  0  0  0  0  0  0  0  0  0  0  0
   74.1430   38.4890   -0.8000 H   0  0  0  0  0  0  0  0  0  0  0  0
   71.5338   40.7078   -4.9598 H   0  0  0  0  0  0  0  0  0  0  0  0
   72.8791   42.1339   -6.4790 H   0  0  0  0  0  0  0  0  0  0  0  0
   76.1861   42.0091   -6.4975 H   0  0  0  0  0  0  0  0  0  0  0  0
   74.8942   42.5595   -7.6111 H   0  0  0  0  0  0  0  0  0  0  0  0
   77.4653   44.0703   -6.8889 H   0  0  0  0  0  0  0  0  0  0  0  0
   77.0663   43.2895   -8.4704 H   0  0  0  0  0  0  0  0  0  0  0  0
   76.7475   45.7846   -8.4603 H   0  0  0  0  0  0  0  0  0  0  0  0
   75.2542   44.8441   -8.8495 H   0  0  0  0  0  0  0  0  0  0  0  0
   75.9792   46.1423   -6.1814 H   0  0  0  0  0  0  0  0  0  0  0  0
   74.6614   46.6199   -7.3266 H   0  0  0  0  0  0  0  0  0  0  0  0
   73.8298   45.3097   -5.3496 H   0  0  0  0  0  0  0  0  0  0  0  0
   73.4836   44.5230   -6.9235 H   0  0  0  0  0  0  0  0  0  0  0  0
  1  2  1  0
  2  3  1  0
  3  4  2  0
  4  5  1  0
  5  6  1  0
  6  7  1  0
  7  8  1  0
  8  9  2  0
  9 10  1  0
 10 11  2  0
 11 12  1  0
 12 13  1  0
 12 14  2  0
 14 15  1  0
 15 16  2  0
 15 17  1  0
 17 18  1  0
  5 19  2  0
 19 20  1  0
 20 21  2  0
 21 22  1  0
 22 23  1  0
 23 24  1  0
 24 25  1  0
 25 26  1  0
 26 27  1  0
 21  3  1  0
 27 22  1  0
 17  6  2  0
 14  8  1  0
  1 28  1  0
  1 29  1  0
  1 30  1  0
  2 31  1  0
  2 32  1  0
  4 33  1  0
  9 34  1  0
 10 35  1  0
 11 36  1  0
 13 37  1  0
 18 38  1  0
 19 39  1  0
 20 40  1  0
 23 41  1  0
 23 42  1  0
 24 43  1  0
 24 44  1  0
 25 45  1  0
 25 46  1  0
 26 47  1  0
 26 48  1  0
 27 49  1  0
 27 50  1  0
M  END
>  <meeko>  (2) 
{"is_sidechain": [false], "free_energy": -7.966, "intermolecular_energy": -9.901, "internal_energy": -0.65}

$$$$
cand_029_out
     RDKit          3D

 50 53  0  0  0  0  0  0  0  0999 V2000
   76.1510   42.3970   -1.7820 C   0  0  0  0  0  0  0  0  0  0  0  0
   75.4250   43.4990   -2.5400 C   0  0  0  0  0  0  0  0  0  0  0  0
   74.3690   42.9460   -3.4710 C   0  0  0  0  0  0  0  0  0  0  0  0
   73.1660   42.4620   -2.9190 C   0  0  0  0  0  0  0  0  0  0  0  0
   72.1560   41.9150   -3.7240 C   0  0  0  0  0  0  0  0  0  0  0  0
   70.8970   41.4460   -3.1070 C   0  0  0  0  0  0  0  0  0  0  0  0
   71.1070   40.5660   -2.0520 O   0  0  0  0  0  0  0  0  0  0  0  0
   70.0230   40.0510   -1.3890 C   0  0  0  0  0  0  0  0  0  0  0  0
   70.2810   39.1820   -0.3290 C   0  0  0  0  0  0  0  0  0  0  0  0
   69.2220   38.6210    0.3860 C   0  0  0  0  0  0  0  0  0  0  0  0
   67.9040   38.9280    0.0410 C   0  0  0  0  0  0  0  0  0  0  0  0
   67.6480   39.7960   -1.0180 C   0  0  0  0  0  0  0  0  0  0  0  0
   66.3350   40.0530   -1.3030 O   0  0  0  0  0  0  0  0  0  0  0  0
   68.7100   40.3570   -1.7330 C   0  0  0  0  0  0  0  0  0  0  0  0
   68.4850   41.2730   -2.8530 C   0  0  0  0  0  0  0  0  0  0  0  0
   67.3550   41.5870   -3.2200 O   0  0  0  0  0  0  0  0  0  0  0  0
   69.6780   41.8190   -3.5410 C   0  0  0  0  0  0  0  0  0  0  0  0
   69.4540   42.6720   -4.6050 O   0  0  0  0  0  0  0  0  0  0  0  0
   72.3620   41.8740   -5.1060 C   0  0  0  0  0  0  0  0  0  0  0  0
   73.5540   42.3420   -5.6650 C   0  0  0  0  0  0  0  0  0  0  0  0
   74.5740   42.8750   -4.8630 C   0  0  0  0  0  0  0  0  0  0  0  0
   75.7840   43.3540   -5.4110 N   0  0  0  0  0  0  0  0  0  0  0  0
   76.4950   42.3540   -6.2230 C   0  0  0  0  0  0  0  0  0  0  0  0
   77.8890   42.8870   -6.5560 C   0  0  0  0  0  0  0  0  0  0  0  0
   77.8090   44.2450   -7.2510 C   0  0  0  0  0  0  0  0  0  0  0  0
   76.9750   45.2290   -6.4310 C   0  0  0  0  0  0  0  0  0  0  0  0
   75.6020   44.6460   -6.0910 C   0  0  0  0  0  0  0  0  0  0  0  0
   76.0417   42.5628   -0.7001 H   0  0  0  0  0  0  0  0  0  0  0  0
   75.7180   41.4217   -2.0490 H   0  0  0  0  0  0  0  0  0  0  0  0
   77.2180   42.4099   -2.0490 H   0  0  0  0  0  0  0  0  0  0  0  0
   74.9424   44.1704   -1.8145 H   0  0  0  0  0  0  0  0  0  0  0  0
   76.1662   44.0375   -3.1489 H   0  0  0  0  0  0  0  0  0  0  0  0
   73.0155   42.5145   -1.8306 H   0  0  0  0  0  0  0  0  0  0  0  0
   71.3187   38.9390   -0.0567 H   0  0  0  0  0  0  0  0  0  0  0  0
   69.4256   37.9361    1.2224 H   0  0  0  0  0  0  0  0  0  0  0  0
   67.0695   38.4852    0.6045 H   0  0  0  0  0  0  0  0  0  0  0  0
   65.7410   39.3440   -1.4530 H   0  0  0  0  0  0  0  0  0  0  0  0
   69.2350   43.5700   -4.4480 H   0  0  0  0  0  0  0  0  0  0  0  0
   71.5767   41.4687   -5.7610 H   0  0  0  0  0  0  0  0  0  0  0  0
   73.6952   42.2915   -6.7547 H   0  0  0  0  0  0  0  0  0  0  0  0
   76.5842   41.4148   -5.6574 H   0  0  0  0  0  0  0  0  0  0  0  0
   75.9373   42.1631   -7.1517 H   0  0  0  0  0  0  0  0  0  0  0  0
   78.4644   42.9938   -5.6246 H   0  0  0  0  0  0  0  0  0  0  0  0
   78.3809   42.1759   -7.2360 H   0  0  0  0  0  0  0  0  0  0  0  0
   78.8253   44.6480   -7.3722 H   0  0  0  0  0  0  0  0  0  0  0  0
   77.3297   44.1102   -8.2318 H   0  0  0  0  0  0  0  0  0  0  0  0
   77.5081   45.4586   -5.4966 H   0  0  0  0  0  0  0  0  0  0  0  0
   76.8267   46.1404   -7.0287 H   0  0  0  0  0  0  0  0  0  0  0  0
   75.0614   45.3382   -5.4287 H   0  0  0  0  0  0  0  0  0  0  0  0
   75.0214   44.5011   -7.0140 H   0  0  0  0  0  0  0  0  0  0  0  0
  1  2  1  0
  2  3  1  0
  3  4  2  0
  4  5  1  0
  5  6  1  0
  6  7  1  0
  7  8  1  0
  8  9  2  0
  9 10  1  0
 10 11  2  0
 11 12  1  0
 12 13  1  0
 12 14  2  0
 14 15  1  0
 15 16  2  0
 15 17  1  0
 17 18  1  0
  5 19  2  0
 19 20  1  0
 20 21  2  0
 21 22  1  0
 22 23  1  0
 23 24  1  0
 24 25  1  0
 25 26  1  0
 26 27  1  0
 21  3  1  0
 27 22  1  0
 17  6  2  0
 14  8  1  0
  1 28  1  0
  1 29  1  0
  1 30  1  0
  2 31  1  0
  2 32  1  0
  4 33  1  0
  9 34  1  0
 10 35  1  0
 11 36  1  0
 13 37  1  0
 18 38  1  0
 19 39  1  0
 20 40  1  0
 23 41  1  0
 23 42  1  0
 24 43  1  0
 24 44  1  0
 25 45  1  0
 25 46  1  0
 26 47  1  0
 26 48  1  0
 27 49  1  0
 27 50  1  0
M  END
>  <meeko>  (3) 
{"is_sidechain": [false], "free_energy": -7.941, "intermolecular_energy": -9.898, "internal_energy": -0.621}

$$$$
cand_029_out
     RDKit          3D

 50 53  0  0  0  0  0  0  0  0999 V2000
   75.2240   42.5810   -7.0630 C   0  0  0  0  0  0  0  0  0  0  0  0
   73.7140   42.7200   -6.9300 C   0  0  0  0  0  0  0  0  0  0  0  0
   73.2980   43.0610   -5.5170 C   0  0  0  0  0  0  0  0  0  0  0  0
   73.0010   42.0110   -4.6260 C   0  0  0  0  0  0  0  0  0  0  0  0
   72.5860   42.2590   -3.3090 C   0  0  0  0  0  0  0  0  0  0  0  0
   72.3130   41.1270   -2.3980 C   0  0  0  0  0  0  0  0  0  0  0  0
   70.9740   41.0380   -2.0330 O   0  0  0  0  0  0  0  0  0  0  0  0
   70.5810   40.0320   -1.1880 C   0  0  0  0  0  0  0  0  0  0  0  0
   69.2260   39.9740   -0.8590 C   0  0  0  0  0  0  0  0  0  0  0  0
   68.7600   38.9760   -0.0020 C   0  0  0  0  0  0  0  0  0  0  0  0
   69.6480   38.0370    0.5270 C   0  0  0  0  0  0  0  0  0  0  0  0
   71.0000   38.0970    0.1970 C   0  0  0  0  0  0  0  0  0  0  0  0
   71.8130   37.1470    0.7510 O   0  0  0  0  0  0  0  0  0  0  0  0
   71.4650   39.0960   -0.6620 C   0  0  0  0  0  0  0  0  0  0  0  0
   72.8780   39.1960   -1.0340 C   0  0  0  0  0  0  0  0  0  0  0  0
   73.7200   38.4110   -0.6050 O   0  0  0  0  0  0  0  0  0  0  0  0
   73.2680   40.2880   -1.9550 C   0  0  0  0  0  0  0  0  0  0  0  0
   74.6060   40.3800   -2.2890 O   0  0  0  0  0  0  0  0  0  0  0  0
   72.4870   43.5870   -2.8870 C   0  0  0  0  0  0  0  0  0  0  0  0
   72.7710   44.6390   -3.7630 C   0  0  0  0  0  0  0  0  0  0  0  0
   73.1700   44.3960   -5.0860 C   0  0  0  0  0  0  0  0  0  0  0  0
   73.4620   45.4460   -5.9830 N   0  0  0  0  0  0  0  0  0  0  0  0
   72.3540   46.4000   -6.1470 C   0  0  0  0  0  0  0  0  0  0  0  0
   72.6780   47.3400   -7.3110 C   0  0  0  0  0  0  0  0  0  0  0  0
   74.0180   48.0410   -7.0960 C   0  0  0  0  0  0  0  0  0  0  0  0
   75.1270   47.0250   -6.8240 C   0  0  0  0  0  0  0  0  0  0  0  0
   74.7520   46.0850   -5.6780 C   0  0  0  0  0  0  0  0  0  0  0  0
   75.6780   42.5392   -6.0619 H   0  0  0  0  0  0  0  0  0  0  0  0
   75.4603   41.6573   -7.6116 H   0  0  0  0  0  0  0  0  0  0  0  0
   75.6249   43.4460   -7.6116 H   0  0  0  0  0  0  0  0  0  0  0  0
   73.3703   43.5187   -7.6038 H   0  0  0  0  0  0  0  0  0  0  0  0
   73.2597   41.7535   -7.1937 H   0  0  0  0  0  0  0  0  0  0  0  0
   73.0968   40.9710   -4.9714 H   0  0  0  0  0  0  0  0  0  0  0  0
   68.5262   40.7139   -1.2746 H   0  0  0  0  0  0  0  0  0  0  0  0
   67.6920   38.9290    0.2571 H   0  0  0  0  0  0  0  0  0  0  0  0
   69.2804   37.2512    1.2033 H   0  0  0  0  0  0  0  0  0  0  0  0
   72.5420   37.4040    1.2800 H   0  0  0  0  0  0  0  0  0  0  0  0
   75.0060   41.2220   -2.3920 H   0  0  0  0  0  0  0  0  0  0  0  0
   72.1820   43.8076   -1.8534 H   0  0  0  0  0  0  0  0  0  0  0  0
   72.6800   45.6763   -3.4084 H   0  0  0  0  0  0  0  0  0  0  0  0
   71.4242   45.8529   -6.3619 H   0  0  0  0  0  0  0  0  0  0  0  0
   72.2232   46.9821   -5.2229 H   0  0  0  0  0  0  0  0  0  0  0  0
   72.7235   46.7562   -8.2422 H   0  0  0  0  0  0  0  0  0  0  0  0
   71.8897   48.1048   -7.3719 H   0  0  0  0  0  0  0  0  0  0  0  0
   74.2714   48.6181   -7.9975 H   0  0  0  0  0  0  0  0  0  0  0  0
   73.9305   48.7076   -6.2254 H   0  0  0  0  0  0  0  0  0  0  0  0
   75.2988   46.4303   -7.7333 H   0  0  0  0  0  0  0  0  0  0  0  0
   76.0371   47.5732   -6.5391 H   0  0  0  0  0  0  0  0  0  0  0  0
   75.5279   45.3135   -5.5653 H   0  0  0  0  0  0  0  0  0  0  0  0
   74.6709   46.6560   -4.7413 H   0  0  0  0  0  0  0  0  0  0  0  0
  1  2  1  0
  2  3  1  0
  3  4  2  0
  4  5  1  0
  5  6  1  0
  6  7  1  0
  7  8  1  0
  8  9  2  0
  9 10  1  0
 10 11  2  0
 11 12  1  0
 12 13  1  0
 12 14  2  0
 14 15  1  0
 15 16  2  0
 15 17  1  0
 17 18  1  0
  5 19  2  0
 19 20  1  0
 20 21  2  0
 21 22  1  0
 22 23  1  0
 23 24  1  0
 24 25  1  0
 25 26  1  0
 26 27  1  0
 21  3  1  0
 27 22  1  0
 17  6  2  0
 14  8  1  0
  1 28  1  0
  1 29  1  0
  1 30  1  0
  2 31  1  0
  2 32  1  0
  4 33  1  0
  9 34  1  0
 10 35  1  0
 11 36  1  0
 13 37  1  0
 18 38  1  0
 19 39  1  0
 20 40  1  0
 23 41  1  0
 23 42  1  0
 24 43  1  0
 24 44  1  0
 25 45  1  0
 25 46  1  0
 26 47  1  0
 26 48  1  0
 27 49  1  0
 27 50  1  0
M  END
>  <meeko>  (4) 
{"is_sidechain": [false], "free_energy": -7.745, "intermolecular_energy": -9.481, "internal_energy": -0.797}

$$$$
cand_029_out
     RDKit          3D

 50 53  0  0  0  0  0  0  0  0999 V2000
   72.2280   43.8840   -5.8760 C   0  0  0  0  0  0  0  0  0  0  0  0
   73.3290   42.8460   -6.0400 C   0  0  0  0  0  0  0  0  0  0  0  0
   73.8210   42.3250   -4.7080 C   0  0  0  0  0  0  0  0  0  0  0  0
   72.9450   41.5610   -3.9130 C   0  0  0  0  0  0  0  0  0  0  0  0
   73.3310   41.0680   -2.6580 C   0  0  0  0  0  0  0  0  0  0  0  0
   72.3900   40.2450   -1.8690 C   0  0  0  0  0  0  0  0  0  0  0  0
   71.0740   40.6800   -1.9720 O   0  0  0  0  0  0  0  0  0  0  0  0
   70.0950   40.0060   -1.2880 C   0  0  0  0  0  0  0  0  0  0  0  0
   68.7870   40.4700   -1.4310 C   0  0  0  0  0  0  0  0  0  0  0  0
   67.7440   39.8300   -0.7600 C   0  0  0  0  0  0  0  0  0  0  0  0
   68.0070   38.7260    0.0540 C   0  0  0  0  0  0  0  0  0  0  0  0
   69.3140   38.2650    0.1950 C   0  0  0  0  0  0  0  0  0  0  0  0
   69.5020   37.1800    1.0070 O   0  0  0  0  0  0  0  0  0  0  0  0
   70.3580   38.9060   -0.4780 C   0  0  0  0  0  0  0  0  0  0  0  0
   71.7450   38.4540   -0.3570 C   0  0  0  0  0  0  0  0  0  0  0  0
   72.0580   37.4940    0.3450 O   0  0  0  0  0  0  0  0  0  0  0  0
   72.7760   39.1980   -1.1160 C   0  0  0  0  0  0  0  0  0  0  0  0
   74.0850   38.7700   -0.9840 O   0  0  0  0  0  0  0  0  0  0  0  0
   74.6270   41.3410   -2.2110 C   0  0  0  0  0  0  0  0  0  0  0  0
   75.5030   42.1060   -2.9860 C   0  0  0  0  0  0  0  0  0  0  0  0
   75.1170   42.6150   -4.2340 C   0  0  0  0  0  0  0  0  0  0  0  0
   75.9900   43.3880   -5.0300 N   0  0  0  0  0  0  0  0  0  0  0  0
   76.3040   44.7020   -4.4480 C   0  0  0  0  0  0  0  0  0  0  0  0
   77.0430   45.5420   -5.4900 C   0  0  0  0  0  0  0  0  0  0  0  0
   78.2900   44.8210   -5.9960 C   0  0  0  0  0  0  0  0  0  0  0  0
   77.9440   43.4190   -6.4970 C   0  0  0  0  0  0  0  0  0  0  0  0
   77.1790   42.6230   -5.4390 C   0  0  0  0  0  0  0  0  0  0  0  0
   72.0441   44.0574   -4.8054 H   0  0  0  0  0  0  0  0  0  0  0  0
   72.5382   44.8259   -6.3520 H   0  0  0  0  0  0  0  0  0  0  0  0
   71.3060   43.5189   -6.3520 H   0  0  0  0  0  0  0  0  0  0  0  0
   72.9373   42.0030   -6.6281 H   0  0  0  0  0  0  0  0  0  0  0  0
   74.1763   43.3278   -6.5498 H   0  0  0  0  0  0  0  0  0  0  0  0
   71.9327   41.3455   -4.2856 H   0  0  0  0  0  0  0  0  0  0  0  0
   68.5781   41.3393   -2.0719 H   0  0  0  0  0  0  0  0  0  0  0  0
   66.7127   40.1958   -0.8725 H   0  0  0  0  0  0  0  0  0  0  0  0
   67.1844   38.2219    0.5823 H   0  0  0  0  0  0  0  0  0  0  0  0
   70.0430   36.4700    0.7240 H   0  0  0  0  0  0  0  0  0  0  0  0
   74.3170   37.8930   -1.2190 H   0  0  0  0  0  0  0  0  0  0  0  0
   74.9610   40.9495   -1.2388 H   0  0  0  0  0  0  0  0  0  0  0  0
   76.5156   42.3129   -2.6093 H   0  0  0  0  0  0  0  0  0  0  0  0
   75.3721   45.2095   -4.1581 H   0  0  0  0  0  0  0  0  0  0  0  0
   76.9361   44.5733   -3.5570 H   0  0  0  0  0  0  0  0  0  0  0  0
   76.3703   45.7342   -6.3388 H   0  0  0  0  0  0  0  0  0  0  0  0
   77.3533   46.4868   -5.0198 H   0  0  0  0  0  0  0  0  0  0  0  0
   78.7307   45.3997   -6.8211 H   0  0  0  0  0  0  0  0  0  0  0  0
   79.0052   44.7307   -5.1651 H   0  0  0  0  0  0  0  0  0  0  0  0
   77.3217   43.5048   -7.4000 H   0  0  0  0  0  0  0  0  0  0  0  0
   78.8819   42.8888   -6.7190 H   0  0  0  0  0  0  0  0  0  0  0  0
   76.8681   41.6551   -5.8591 H   0  0  0  0  0  0  0  0  0  0  0  0
   77.8258   42.4472   -4.5668 H   0  0  0  0  0  0  0  0  0  0  0  0
  1  2  1  0
  2  3  1  0
  3  4  2  0
  4  5  1  0
  5  6  1  0
  6  7  1  0
  7  8  1  0
  8  9  2  0
  9 10  1  0
 10 11  2  0
 11 12  1  0
 12 13  1  0
 12 14  2  0
 14 15  1  0
 15 16  2  0
 15 17  1  0
 17 18  1  0
  5 19  2  0
 19 20  1  0
 20 21  2  0
 21 22  1  0
 22 23  1  0
 23 24  1  0
 24 25  1  0
 25 26  1  0
 26 27  1  0
 21  3  1  0
 27 22  1  0
 17  6  2  0
 14  8  1  0
  1 28  1  0
  1 29  1  0
  1 30  1  0
  2 31  1  0
  2 32  1  0
  4 33  1  0
  9 34  1  0
 10 35  1  0
 11 36  1  0
 13 37  1  0
 18 38  1  0
 19 39  1  0
 20 40  1  0
 23 41  1  0
 23 42  1  0
 24 43  1  0
 24 44  1  0
 25 45  1  0
 25 46  1  0
 26 47  1  0
 26 48  1  0
 27 49  1  0
 27 50  1  0
M  END
>  <meeko>  (5) 
{"is_sidechain": [false], "free_energy": -7.556, "intermolecular_energy": -9.572, "internal_energy": -0.473}

$$$$
cand_029_out
     RDKit          3D

 50 53  0  0  0  0  0  0  0  0999 V2000
   72.3120   42.7880   -5.4060 C   0  0  0  0  0  0  0  0  0  0  0  0
   71.0740   43.6580   -5.5660 C   0  0  0  0  0  0  0  0  0  0  0  0
   69.9040   43.1330   -4.7640 C   0  0  0  0  0  0  0  0  0  0  0  0
   70.1320   42.1100   -3.8230 C   0  0  0  0  0  0  0  0  0  0  0  0
   69.0870   41.5620   -3.0640 C   0  0  0  0  0  0  0  0  0  0  0  0
   69.3750   40.5110   -2.0660 C   0  0  0  0  0  0  0  0  0  0  0  0
   70.7090   40.1190   -2.0620 O   0  0  0  0  0  0  0  0  0  0  0  0
   71.1150   39.1470   -1.1840 C   0  0  0  0  0  0  0  0  0  0  0  0
   72.4650   38.7950   -1.2080 C   0  0  0  0  0  0  0  0  0  0  0  0
   72.9430   37.8110   -0.3400 C   0  0  0  0  0  0  0  0  0  0  0  0
   72.0720   37.1780    0.5490 C   0  0  0  0  0  0  0  0  0  0  0  0
   70.7240   37.5320    0.5700 C   0  0  0  0  0  0  0  0  0  0  0  0
   69.9270   36.8720    1.4650 O   0  0  0  0  0  0  0  0  0  0  0  0
   70.2470   38.5170   -0.2980 C   0  0  0  0  0  0  0  0  0  0  0  0
   68.8390   38.9180   -0.3090 C   0  0  0  0  0  0  0  0  0  0  0  0
   68.0100   38.4040    0.4390 O   0  0  0  0  0  0  0  0  0  0  0  0
   68.4360   39.9770   -1.2630 C   0  0  0  0  0  0  0  0  0  0  0  0
   67.1010   40.3380   -1.2730 O   0  0  0  0  0  0  0  0  0  0  0  0
   67.7990   42.0700   -3.2510 C   0  0  0  0  0  0  0  0  0  0  0  0
   67.5570   43.0790   -4.1880 C   0  0  0  0  0  0  0  0  0  0  0  0
   68.5960   43.6180   -4.9610 C   0  0  0  0  0  0  0  0  0  0  0  0
   68.3700   44.6390   -5.9100 N   0  0  0  0  0  0  0  0  0  0  0  0
   67.3060   44.3160   -6.8730 C   0  0  0  0  0  0  0  0  0  0  0  0
   67.3140   45.3620   -7.9900 C   0  0  0  0  0  0  0  0  0  0  0  0
   67.1730   46.7730   -7.4240 C   0  0  0  0  0  0  0  0  0  0  0  0
   68.2290   47.0380   -6.3510 C   0  0  0  0  0  0  0  0  0  0  0  0
   68.2100   45.9540   -5.2720 C   0  0  0  0  0  0  0  0  0  0  0  0
   72.5211   42.6411   -4.3361 H   0  0  0  0  0  0  0  0  0  0  0  0
   72.1385   41.8122   -5.8831 H   0  0  0  0  0  0  0  0  0  0  0  0
   73.1714   43.2818   -5.8831 H   0  0  0  0  0  0  0  0  0  0  0  0
   71.3096   44.6769   -5.2248 H   0  0  0  0  0  0  0  0  0  0  0  0
   70.7883   43.6498   -6.6282 H   0  0  0  0  0  0  0  0  0  0  0  0
   71.1548   41.7313   -3.6796 H   0  0  0  0  0  0  0  0  0  0  0  0
   73.1515   39.2917   -1.9094 H   0  0  0  0  0  0  0  0  0  0  0  0
   74.0075   37.5341   -0.3567 H   0  0  0  0  0  0  0  0  0  0  0  0
   72.4488   36.4017    1.2312 H   0  0  0  0  0  0  0  0  0  0  0  0
   69.5710   36.0330    1.2470 H   0  0  0  0  0  0  0  0  0  0  0  0
   66.5870   40.2070   -2.0460 H   0  0  0  0  0  0  0  0  0  0  0  0
   66.9655   41.6714   -2.6540 H   0  0  0  0  0  0  0  0  0  0  0  0
   66.5327   43.4572   -4.3215 H   0  0  0  0  0  0  0  0  0  0  0  0
   67.4850   43.3183   -7.3002 H   0  0  0  0  0  0  0  0  0  0  0  0
   66.3301   44.3203   -6.3654 H   0  0  0  0  0  0  0  0  0  0  0  0
   68.2623   45.2899   -8.5427 H   0  0  0  0  0  0  0  0  0  0  0  0
   66.4614   45.1667   -8.6571 H   0  0  0  0  0  0  0  0  0  0  0  0
   67.2964   47.5019   -8.2386 H   0  0  0  0  0  0  0  0  0  0  0  0
   66.1766   46.8711   -6.9685 H   0  0  0  0  0  0  0  0  0  0  0  0
   69.2225   47.0563   -6.8229 H   0  0  0  0  0  0  0  0  0  0  0  0
   68.0057   48.0046   -5.8757 H   0  0  0  0  0  0  0  0  0  0  0  0
   69.0353   46.1234   -4.5648 H   0  0  0  0  0  0  0  0  0  0  0  0
   67.2546   45.9887   -4.7278 H   0  0  0  0  0  0  0  0  0  0  0  0
  1  2  1  0
  2  3  1  0
  3  4  2  0
  4  5  1  0
  5  6  1  0
  6  7  1  0
  7  8  1  0
  8  9  2  0
  9 10  1  0
 10 11  2  0
 11 12  1  0
 12 13  1  0
 12 14  2  0
 14 15  1  0
 15 16  2  0
 15 17  1  0
 17 18  1  0
  5 19  2  0
 19 20  1  0
 20 21  2  0
 21 22  1  0
 22 23  1  0
 23 24  1  0
 24 25  1  0
 25 26  1  0
 26 27  1  0
 21  3  1  0
 27 22  1  0
 17  6  2  0
 14  8  1  0
  1 28  1  0
  1 29  1  0
  1 30  1  0
  2 31  1  0
  2 32  1  0
  4 33  1  0
  9 34  1  0
 10 35  1  0
 11 36  1  0
 13 37  1  0
 18 38  1  0
 19 39  1  0
 20 40  1  0
 23 41  1  0
 23 42  1  0
 24 43  1  0
 24 44  1  0
 25 45  1  0
 25 46  1  0
 26 47  1  0
 26 48  1  0
 27 49  1  0
 27 50  1  0
M  END
>  <meeko>  (6) 
{"is_sidechain": [false], "free_energy": -7.48, "intermolecular_energy": -9.747, "internal_energy": -0.204}

$$$$
cand_029_out
     RDKit          3D

 50 53  0  0  0  0  0  0  0  0999 V2000
   72.2830   45.5050   -4.4370 C   0  0  0  0  0  0  0  0  0  0  0  0
   73.4170   45.3220   -3.4400 C   0  0  0  0  0  0  0  0  0  0  0  0
   73.8050   43.8690   -3.2810 C   0  0  0  0  0  0  0  0  0  0  0  0
   72.9210   43.0020   -2.6090 C   0  0  0  0  0  0  0  0  0  0  0  0
   73.2300   41.6480   -2.4070 C   0  0  0  0  0  0  0  0  0  0  0  0
   72.2600   40.7670   -1.7230 C   0  0  0  0  0  0  0  0  0  0  0  0
   72.8600   39.6600   -1.1330 O   0  0  0  0  0  0  0  0  0  0  0  0
   72.0740   38.7560   -0.4640 C   0  0  0  0  0  0  0  0  0  0  0  0
   72.7200   37.6670    0.1230 C   0  0  0  0  0  0  0  0  0  0  0  0
   71.9780   36.7090    0.8170 C   0  0  0  0  0  0  0  0  0  0  0  0
   70.5920   36.8380    0.9220 C   0  0  0  0  0  0  0  0  0  0  0  0
   69.9500   37.9260    0.3350 C   0  0  0  0  0  0  0  0  0  0  0  0
   68.5910   37.9910    0.4770 O   0  0  0  0  0  0  0  0  0  0  0  0
   70.6930   38.8850   -0.3580 C   0  0  0  0  0  0  0  0  0  0  0  0
   70.0580   40.0430   -0.9910 C   0  0  0  0  0  0  0  0  0  0  0  0
   68.8430   40.2230   -0.9460 O   0  0  0  0  0  0  0  0  0  0  0  0
   70.9360   41.0050   -1.6960 C   0  0  0  0  0  0  0  0  0  0  0  0
   70.3230   42.0870   -2.3010 O   0  0  0  0  0  0  0  0  0  0  0  0
   74.4430   41.1660   -2.9060 C   0  0  0  0  0  0  0  0  0  0  0  0
   75.3330   42.0180   -3.5660 C   0  0  0  0  0  0  0  0  0  0  0  0
   75.0360   43.3760   -3.7570 C   0  0  0  0  0  0  0  0  0  0  0  0
   75.9230   44.2490   -4.4230 N   0  0  0  0  0  0  0  0  0  0  0  0
   77.2440   44.3420   -3.7820 C   0  0  0  0  0  0  0  0  0  0  0  0
   78.0280   45.4860   -4.4280 C   0  0  0  0  0  0  0  0  0  0  0  0
   78.1310   45.2970   -5.9410 C   0  0  0  0  0  0  0  0  0  0  0  0
   76.7480   45.0980   -6.5610 C   0  0  0  0  0  0  0  0  0  0  0  0
   75.9840   43.9700   -5.8660 C   0  0  0  0  0  0  0  0  0  0  0  0
   71.3385   45.6574   -3.8941 H   0  0  0  0  0  0  0  0  0  0  0  0
   72.4883   46.3816   -5.0690 H   0  0  0  0  0  0  0  0  0  0  0  0
   72.2021   44.6083   -5.0690 H   0  0  0  0  0  0  0  0  0  0  0  0
   74.2931   45.8867   -3.7915 H   0  0  0  0  0  0  0  0  0  0  0  0
   73.0715   45.6895   -2.4625 H   0  0  0  0  0  0  0  0  0  0  0  0
   71.9651   43.3960   -2.2334 H   0  0  0  0  0  0  0  0  0  0  0  0
   73.8119   37.5635    0.0391 H   0  0  0  0  0  0  0  0  0  0  0  0
   72.4865   35.8514    1.2817 H   0  0  0  0  0  0  0  0  0  0  0  0
   70.0079   36.0820    1.4672 H   0  0  0  0  0  0  0  0  0  0  0  0
   68.1820   37.6390    1.2440 H   0  0  0  0  0  0  0  0  0  0  0  0
   69.7980   41.9600   -3.0670 H   0  0  0  0  0  0  0  0  0  0  0  0
   74.7003   40.1042   -2.7780 H   0  0  0  0  0  0  0  0  0  0  0  0
   76.2850   41.6160   -3.9431 H   0  0  0  0  0  0  0  0  0  0  0  0
   77.1199   44.5400   -2.7071 H   0  0  0  0  0  0  0  0  0  0  0  0
   77.7894   43.3957   -3.9125 H   0  0  0  0  0  0  0  0  0  0  0  0
   77.5149   46.4362   -4.2188 H   0  0  0  0  0  0  0  0  0  0  0  0
   79.0442   45.4944   -4.0070 H   0  0  0  0  0  0  0  0  0  0  0  0
   78.5996   46.1880   -6.3842 H   0  0  0  0  0  0  0  0  0  0  0  0
   78.7388   44.4027   -6.1430 H   0  0  0  0  0  0  0  0  0  0  0  0
   76.1744   46.0317   -6.4645 H   0  0  0  0  0  0  0  0  0  0  0  0
   76.8778   44.8284   -7.6195 H   0  0  0  0  0  0  0  0  0  0  0  0
   74.9639   43.9103   -6.2733 H   0  0  0  0  0  0  0  0  0  0  0  0
   76.4985   43.0130   -6.0374 H   0  0  0  0  0  0  0  0  0  0  0  0
  1  2  1  0
  2  3  1  0
  3  4  2  0
  4  5  1  0
  5  6  1  0
  6  7  1  0
  7  8  1  0
  8  9  2  0
  9 10  1  0
 10 11  2  0
 11 12  1  0
 12 13  1  0
 12 14  2  0
 14 15  1  0
 15 16  2  0
 15 17  1  0
 17 18  1  0
  5 19  2  0
 19 20  1  0
 20 21  2  0
 21 22  1  0
 22 23  1  0
 23 24  1  0
 24 25  1  0
 25 26  1  0
 26 27  1  0
 21  3  1  0
 27 22  1  0
 17  6  2  0
 14  8  1  0
  1 28  1  0
  1 29  1  0
  1 30  1  0
  2 31  1  0
  2 32  1  0
  4 33  1  0
  9 34  1  0
 10 35  1  0
 11 36  1  0
 13 37  1  0
 18 38  1  0
 19 39  1  0
 20 40  1  0
 23 41  1  0
 23 42  1  0
 24 43  1  0
 24 44  1  0
 25 45  1  0
 25 46  1  0
 26 47  1  0
 26 48  1  0
 27 49  1  0
 27 50  1  0
M  END
>  <meeko>  (7) 
{"is_sidechain": [false], "free_energy": -7.385, "intermolecular_energy": -9.523, "internal_energy": -0.311}

$$$$
cand_029_out
     RDKit          3D

 50 53  0  0  0  0  0  0  0  0999 V2000
   75.3200   42.4040   -6.5880 C   0  0  0  0  0  0  0  0  0  0  0  0
   73.8000   42.4750   -6.6090 C   0  0  0  0  0  0  0  0  0  0  0  0
   73.2350   42.9160   -5.2770 C   0  0  0  0  0  0  0  0  0  0  0  0
   72.6180   41.9560   -4.4510 C   0  0  0  0  0  0  0  0  0  0  0  0
   72.0530   42.3030   -3.2150 C   0  0  0  0  0  0  0  0  0  0  0  0
   71.4430   41.2590   -2.3660 C   0  0  0  0  0  0  0  0  0  0  0  0
   72.3740   40.3560   -1.8650 O   0  0  0  0  0  0  0  0  0  0  0  0
   71.9430   39.3320   -1.0610 C   0  0  0  0  0  0  0  0  0  0  0  0
   72.9140   38.4580   -0.5720 C   0  0  0  0  0  0  0  0  0  0  0  0
   72.5420   37.3930    0.2510 C   0  0  0  0  0  0  0  0  0  0  0  0
   71.1990   37.2020    0.5830 C   0  0  0  0  0  0  0  0  0  0  0  0
   70.2310   38.0760    0.0930 C   0  0  0  0  0  0  0  0  0  0  0  0
   68.9360   37.8300    0.4570 O   0  0  0  0  0  0  0  0  0  0  0  0
   70.6050   39.1420   -0.7290 C   0  0  0  0  0  0  0  0  0  0  0  0
   69.6210   40.0830   -1.2670 C   0  0  0  0  0  0  0  0  0  0  0  0
   68.4200   39.9770   -1.0240 O   0  0  0  0  0  0  0  0  0  0  0  0
   70.1210   41.1830   -2.1240 C   0  0  0  0  0  0  0  0  0  0  0  0
   69.1800   42.0570   -2.6360 O   0  0  0  0  0  0  0  0  0  0  0  0
   72.1270   43.6370   -2.8060 C   0  0  0  0  0  0  0  0  0  0  0  0
   72.7280   44.6020   -3.6200 C   0  0  0  0  0  0  0  0  0  0  0  0
   73.2800   44.2630   -4.8650 C   0  0  0  0  0  0  0  0  0  0  0  0
   73.8920   45.2240   -5.6980 N   0  0  0  0  0  0  0  0  0  0  0  0
   72.9500   46.2190   -6.2330 C   0  0  0  0  0  0  0  0  0  0  0  0
   73.6590   47.0480   -7.3050 C   0  0  0  0  0  0  0  0  0  0  0  0
   74.9290   47.6920   -6.7520 C   0  0  0  0  0  0  0  0  0  0  0  0
   75.8380   46.6440   -6.1100 C   0  0  0  0  0  0  0  0  0  0  0  0
   75.0830   45.8160   -5.0690 C   0  0  0  0  0  0  0  0  0  0  0  0
   75.6719   42.3876   -5.5459 H   0  0  0  0  0  0  0  0  0  0  0  0
   75.6515   41.4894   -7.1014 H   0  0  0  0  0  0  0  0  0  0  0  0
   75.7353   43.2837   -7.1014 H   0  0  0  0  0  0  0  0  0  0  0  0
   73.4886   43.1929   -7.3821 H   0  0  0  0  0  0  0  0  0  0  0  0
   73.4157   41.4670   -6.8242 H   0  0  0  0  0  0  0  0  0  0  0  0
   72.5783   40.9082   -4.7836 H   0  0  0  0  0  0  0  0  0  0  0  0
   73.9717   38.6076   -0.8344 H   0  0  0  0  0  0  0  0  0  0  0  0
   73.3072   36.7041    0.6380 H   0  0  0  0  0  0  0  0  0  0  0  0
   70.9058   36.3625    1.2306 H   0  0  0  0  0  0  0  0  0  0  0  0
   68.5940   36.9590    0.4130 H   0  0  0  0  0  0  0  0  0  0  0  0
   68.2670   41.9000   -2.4920 H   0  0  0  0  0  0  0  0  0  0  0  0
   71.7077   43.9314   -1.8326 H   0  0  0  0  0  0  0  0  0  0  0  0
   72.7689   45.6467   -3.2781 H   0  0  0  0  0  0  0  0  0  0  0  0
   72.0837   45.7061   -6.6761 H   0  0  0  0  0  0  0  0  0  0  0  0
   72.6034   46.8769   -5.4224 H   0  0  0  0  0  0  0  0  0  0  0  0
   73.9259   46.3930   -8.1475 H   0  0  0  0  0  0  0  0  0  0  0  0
   72.9784   47.8462   -7.6362 H   0  0  0  0  0  0  0  0  0  0  0  0
   75.4706   48.1835   -7.5737 H   0  0  0  0  0  0  0  0  0  0  0  0
   74.6444   48.4272   -5.9849 H   0  0  0  0  0  0  0  0  0  0  0  0
   76.2199   45.9728   -6.8933 H   0  0  0  0  0  0  0  0  0  0  0  0
   76.6656   47.1644   -5.6058 H   0  0  0  0  0  0  0  0  0  0  0  0
   75.7360   45.0159   -4.6903 H   0  0  0  0  0  0  0  0  0  0  0  0
   74.7785   46.4610   -4.2316 H   0  0  0  0  0  0  0  0  0  0  0  0
  1  2  1  0
  2  3  1  0
  3  4  2  0
  4  5  1  0
  5  6  1  0
  6  7  1  0
  7  8  1  0
  8  9  2  0
  9 10  1  0
 10 11  2  0
 11 12  1  0
 12 13  1  0
 12 14  2  0
 14 15  1  0
 15 16  2  0
 15 17  1  0
 17 18  1  0
  5 19  2  0
 19 20  1  0
 20 21  2  0
 21 22  1  0
 22 23  1  0
 23 24  1  0
 24 25  1  0
 25 26  1  0
 26 27  1  0
 21  3  1  0
 27 22  1  0
 17  6  2  0
 14  8  1  0
  1 28  1  0
  1 29  1  0
  1 30  1  0
  2 31  1  0
  2 32  1  0
  4 33  1  0
  9 34  1  0
 10 35  1  0
 11 36  1  0
 13 37  1  0
 18 38  1  0
 19 39  1  0
 20 40  1  0
 23 41  1  0
 23 42  1  0
 24 43  1  0
 24 44  1  0
 25 45  1  0
 25 46  1  0
 26 47  1  0
 26 48  1  0
 27 49  1  0
 27 50  1  0
M  END
>  <meeko>  (8) 
{"is_sidechain": [false], "free_energy": -7.373, "intermolecular_energy": -9.088, "internal_energy": -0.731}

$$$$
cand_029_out
     RDKit          3D

 50 53  0  0  0  0  0  0  0  0999 V2000
   66.9840   43.8020   -1.8270 C   0  0  0  0  0  0  0  0  0  0  0  0
   67.8960   44.5930   -2.7530 C   0  0  0  0  0  0  0  0  0  0  0  0
   68.9760   43.7270   -3.3610 C   0  0  0  0  0  0  0  0  0  0  0  0
   69.5310   42.6900   -2.5860 C   0  0  0  0  0  0  0  0  0  0  0  0
   70.5520   41.8660   -3.0820 C   0  0  0  0  0  0  0  0  0  0  0  0
   71.0850   40.7710   -2.2450 C   0  0  0  0  0  0  0  0  0  0  0  0
   70.1070   40.1560   -1.4720 O   0  0  0  0  0  0  0  0  0  0  0  0
   70.4650   39.1210   -0.6460 C   0  0  0  0  0  0  0  0  0  0  0  0
   69.4490   38.5260    0.1010 C   0  0  0  0  0  0  0  0  0  0  0  0
   69.7460   37.4690    0.9640 C   0  0  0  0  0  0  0  0  0  0  0  0
   71.0600   37.0090    1.0800 C   0  0  0  0  0  0  0  0  0  0  0  0
   72.0720   37.6050    0.3320 C   0  0  0  0  0  0  0  0  0  0  0  0
   73.3350   37.1050    0.4950 O   0  0  0  0  0  0  0  0  0  0  0  0
   71.7730   38.6620   -0.5310 C   0  0  0  0  0  0  0  0  0  0  0  0
   72.8080   39.3180   -1.3340 C   0  0  0  0  0  0  0  0  0  0  0  0
   73.9870   38.9730   -1.2820 O   0  0  0  0  0  0  0  0  0  0  0  0
   72.3860   40.4240   -2.2230 C   0  0  0  0  0  0  0  0  0  0  0  0
   73.3740   41.0440   -2.9660 O   0  0  0  0  0  0  0  0  0  0  0  0
   71.0050   42.0880   -4.3850 C   0  0  0  0  0  0  0  0  0  0  0  0
   70.4700   43.1190   -5.1630 C   0  0  0  0  0  0  0  0  0  0  0  0
   69.4600   43.9560   -4.6650 C   0  0  0  0  0  0  0  0  0  0  0  0
   68.9070   45.0010   -5.4370 N   0  0  0  0  0  0  0  0  0  0  0  0
   69.7720   46.1870   -5.5220 C   0  0  0  0  0  0  0  0  0  0  0  0
   68.9830   47.3320   -6.1590 C   0  0  0  0  0  0  0  0  0  0  0  0
   68.4260   46.9250   -7.5220 C   0  0  0  0  0  0  0  0  0  0  0  0
   67.6190   45.6310   -7.4170 C   0  0  0  0  0  0  0  0  0  0  0  0
   68.4310   44.5220   -6.7450 C   0  0  0  0  0  0  0  0  0  0  0  0
   67.2410   44.0249   -0.7809 H   0  0  0  0  0  0  0  0  0  0  0  0
   65.9373   44.0831   -2.0153 H   0  0  0  0  0  0  0  0  0  0  0  0
   67.1143   42.7261   -2.0153 H   0  0  0  0  0  0  0  0  0  0  0  0
   67.2904   45.0261   -3.5628 H   0  0  0  0  0  0  0  0  0  0  0  0
   68.3854   45.3782   -2.1580 H   0  0  0  0  0  0  0  0  0  0  0  0
   69.1543   42.5222   -1.5662 H   0  0  0  0  0  0  0  0  0  0  0  0
   68.4145   38.8889    0.0106 H   0  0  0  0  0  0  0  0  0  0  0  0
   68.9449   36.9984    1.5528 H   0  0  0  0  0  0  0  0  0  0  0  0
   71.2947   36.1776    1.7609 H   0  0  0  0  0  0  0  0  0  0  0  0
   73.8960   36.9970   -0.2480 H   0  0  0  0  0  0  0  0  0  0  0  0
   73.7490   41.8490   -2.6660 H   0  0  0  0  0  0  0  0  0  0  0  0
   71.7921   41.4437   -4.8037 H   0  0  0  0  0  0  0  0  0  0  0  0
   70.8477   43.2769   -6.1840 H   0  0  0  0  0  0  0  0  0  0  0  0
   70.0974   46.4796   -4.5128 H   0  0  0  0  0  0  0  0  0  0  0  0
   70.6572   45.9592   -6.1339 H   0  0  0  0  0  0  0  0  0  0  0  0
   68.1482   47.6050   -5.4968 H   0  0  0  0  0  0  0  0  0  0  0  0
   69.6605   48.1871   -6.2998 H   0  0  0  0  0  0  0  0  0  0  0  0
   67.7737   47.7267   -7.8985 H   0  0  0  0  0  0  0  0  0  0  0  0
   69.2677   46.7594   -8.2105 H   0  0  0  0  0  0  0  0  0  0  0  0
   66.7126   45.8212   -6.8235 H   0  0  0  0  0  0  0  0  0  0  0  0
   67.3569   45.3020   -8.4334 H   0  0  0  0  0  0  0  0  0  0  0  0
   67.7967   43.6344   -6.6040 H   0  0  0  0  0  0  0  0  0  0  0  0
   69.2902   44.2553   -7.3779 H   0  0  0  0  0  0  0  0  0  0  0  0
  1  2  1  0
  2  3  1  0
  3  4  2  0
  4  5  1  0
  5  6  1  0
  6  7  1  0
  7  8  1  0
  8  9  2  0
  9 10  1  0
 10 11  2  0
 11 12  1  0
 12 13  1  0
 12 14  2  0
 14 15  1  0
 15 16  2  0
 15 17  1  0
 17 18  1  0
  5 19  2  0
 19 20  1  0
 20 21  2  0
 21 22  1  0
 22 23  1  0
 23 24  1  0
 24 25  1  0
 25 26  1  0
 26 27  1  0
 21  3  1  0
 27 22  1  0
 17  6  2  0
 14  8  1  0
  1 28  1  0
  1 29  1  0
  1 30  1  0
  2 31  1  0
  2 32  1  0
  4 33  1  0
  9 34  1  0
 10 35  1  0
 11 36  1  0
 13 37  1  0
 18 38  1  0
 19 39  1  0
 20 40  1  0
 23 41  1  0
 23 42  1  0
 24 43  1  0
 24 44  1  0
 25 45  1  0
 25 46  1  0
 26 47  1  0
 26 48  1  0
 27 49  1  0
 27 50  1  0
M  END
>  <meeko>  (9) 
{"is_sidechain": [false], "free_energy": -7.332, "intermolecular_energy": -9.277, "internal_energy": -0.492}

$$$$
