cand_013_out
     RDKit          3D

 50 53  0  0  0  0  0  0  0  0999 V2000
   77.4430   46.2100   -8.2060 C   0  0  0  0  0  0  0  0  0  0  0  0
   76.4560   45.3140   -7.6060 N   0  0  0  0  0  0  0  0  0  0  0  0
   77.1050   44.0700   -7.1320 C   0  0  0  0  0  0  0  0  0  0  0  0
   76.1110   43.1100   -6.4360 C   0  0  0  0  0  0  0  0  0  0  0  0
   75.4430   43.8070   -5.3110 N   0  0  0  0  0  0  0  0  0  0  0  0
   74.6240   42.9610   -4.5440 C   0  0  0  0  0  0  0  0  0  0  0  0
   73.5020   42.3190   -5.0880 C   0  0  0  0  0  0  0  0  0  0  0  0
   72.7000   41.4770   -4.3130 C   0  0  0  0  0  0  0  0  0  0  0  0
   73.0010   41.2440   -2.9680 C   0  0  0  0  0  0  0  0  0  0  0  0
   72.1560   40.3800   -2.1170 C   0  0  0  0  0  0  0  0  0  0  0  0
   70.8170   40.7520   -2.1310 O   0  0  0  0  0  0  0  0  0  0  0  0
   69.9210   40.0350   -1.3800 C   0  0  0  0  0  0  0  0  0  0  0  0
   68.5860   40.4370   -1.4340 C   0  0  0  0  0  0  0  0  0  0  0  0
   67.6220   39.7480   -0.6920 C   0  0  0  0  0  0  0  0  0  0  0  0
   67.9930   38.6620    0.1020 C   0  0  0  0  0  0  0  0  0  0  0  0
   69.3260   38.2630    0.1520 C   0  0  0  0  0  0  0  0  0  0  0  0
   69.6210   37.1910    0.9500 O   0  0  0  0  0  0  0  0  0  0  0  0
   70.2900   38.9520   -0.5900 C   0  0  0  0  0  0  0  0  0  0  0  0
   71.7020   38.5660   -0.5630 C   0  0  0  0  0  0  0  0  0  0  0  0
   72.1080   37.6260    0.1150 O   0  0  0  0  0  0  0  0  0  0  0  0
   72.6430   39.3560   -1.3910 C   0  0  0  0  0  0  0  0  0  0  0  0
   73.9760   38.9940   -1.3470 O   0  0  0  0  0  0  0  0  0  0  0  0
   74.1170   41.8910   -2.4190 C   0  0  0  0  0  0  0  0  0  0  0  0
   74.9350   42.7440   -3.1920 C   0  0  0  0  0  0  0  0  0  0  0  0
   76.1290   43.4130   -2.5570 C   0  0  0  0  0  0  0  0  0  0  0  0
   76.2850   43.0730   -1.2390 F   0  0  0  0  0  0  0  0  0  0  0  0
   76.0580   44.7760   -2.5560 F   0  0  0  0  0  0  0  0  0  0  0  0
   77.3170   43.0870   -3.1430 F   0  0  0  0  0  0  0  0  0  0  0  0
   74.7640   45.0440   -5.7630 C   0  0  0  0  0  0  0  0  0  0  0  0
   75.7800   45.9750   -6.4660 C   0  0  0  0  0  0  0  0  0  0  0  0
   78.0057   46.7208   -7.4108 H   0  0  0  0  0  0  0  0  0  0  0  0
   78.1367   45.6267   -8.8294 H   0  0  0  0  0  0  0  0  0  0  0  0
   76.9293   46.9567   -8.8294 H   0  0  0  0  0  0  0  0  0  0  0  0
   75.7660   45.0830   -8.3210 H   0  0  0  0  0  0  0  0  0  0  0  0
   77.5488   43.5528   -7.9954 H   0  0  0  0  0  0  0  0  0  0  0  0
   77.8690   44.3528   -6.3929 H   0  0  0  0  0  0  0  0  0  0  0  0
   75.3536   42.7795   -7.1620 H   0  0  0  0  0  0  0  0  0  0  0  0
   76.6590   42.2383   -6.0488 H   0  0  0  0  0  0  0  0  0  0  0  0
   73.2482   42.4815   -6.1459 H   0  0  0  0  0  0  0  0  0  0  0  0
   71.8226   40.9925   -4.7662 H   0  0  0  0  0  0  0  0  0  0  0  0
   68.2928   41.2937   -2.0586 H   0  0  0  0  0  0  0  0  0  0  0  0
   66.5688   40.0626   -0.7341 H   0  0  0  0  0  0  0  0  0  0  0  0
   67.2338   38.1223    0.6872 H   0  0  0  0  0  0  0  0  0  0  0  0
   69.0160   36.4780    1.0190 H   0  0  0  0  0  0  0  0  0  0  0  0
   74.2300   38.1880   -0.9440 H   0  0  0  0  0  0  0  0  0  0  0  0
   74.3618   41.7301   -1.3587 H   0  0  0  0  0  0  0  0  0  0  0  0
   73.9606   44.7826   -6.4675 H   0  0  0  0  0  0  0  0  0  0  0  0
   74.3394   45.5635   -4.8913 H   0  0  0  0  0  0  0  0  0  0  0  0
   75.2473   46.8628   -6.8376 H   0  0  0  0  0  0  0  0  0  0  0  0
   76.5512   46.2465   -5.7302 H   0  0  0  0  0  0  0  0  0  0  0  0
  1  2  1  0
  2  3  1  0
  3  4  1  0
  4  5  1  0
  5  6  1  0
  6  7  2  0
  7  8  1  0
  8  9  2  0
  9 10  1  0
 10 11  1  0
 11 12  1  0
 12 13  2  0
 13 14  1  0
 14 15  2  0
 15 16  1  0
 16 17  1  0
 16 18  2  0
 18 19  1  0
 19 20  2  0
 19 21  1  0
 21 22  1  0
  9 23  1  0
 23 24  2  0
 24 25  1  0
 25 26  1  0
 25 27  1  0
 25 28  1  0
  5 29  1  0
 29 30  1  0
 30  2  1  0
 24  6  1  0
 21 10  2  0
 18 12  1  0
  1 31  1  0
  1 32  1  0
  1 33  1  0
  2 34  1  0
  3 35  1  0
  3 36  1  0
  4 37  1  0
  4 38  1  0
  7 39  1  0
  8 40  1  0
 13 41  1  0
 14 42  1  0
 15 43  1  0
 17 44  1  0
 22 45  1  0
 23 46  1  0
 29 47  1  0
 29 48  1  0
 30 49  1  0
 30 50  1  0
M  CHG  1   2   1
M  END
>  <meeko>  (1) 
{"is_sidechain": [false], "free_energy": -8.293, "intermolecular_energy": -10.233, "internal_energy": -0.529}

$$$$
cand_013_out
     RDKit          3D

 50 53  0  0  0  0  0  0  0  0999 V2000
   77.9980   45.8360   -8.1810 C   0  0  0  0  0  0  0  0  0  0  0  0
   76.9070   45.0540   -7.6050 N   0  0  0  0  0  0  0  0  0  0  0  0
   77.4040   43.7410   -7.1300 C   0  0  0  0  0  0  0  0  0  0  0  0
   76.2960   42.8950   -6.4580 C   0  0  0  0  0  0  0  0  0  0  0  0
   75.6920   43.6550   -5.3380 N   0  0  0  0  0  0  0  0  0  0  0  0
   74.7690   42.9030   -4.5920 C   0  0  0  0  0  0  0  0  0  0  0  0
   73.6150   42.3550   -5.1710 C   0  0  0  0  0  0  0  0  0  0  0  0
   72.7100   41.6040   -4.4150 C   0  0  0  0  0  0  0  0  0  0  0  0
   72.9370   41.3710   -3.0560 C   0  0  0  0  0  0  0  0  0  0  0  0
   71.9840   40.6040   -2.2260 C   0  0  0  0  0  0  0  0  0  0  0  0
   72.5730   39.5120   -1.5980 O   0  0  0  0  0  0  0  0  0  0  0  0
   71.7990   38.7100   -0.7980 C   0  0  0  0  0  0  0  0  0  0  0  0
   72.4340   37.6330   -0.1790 C   0  0  0  0  0  0  0  0  0  0  0  0
   71.7030   36.7760    0.6490 C   0  0  0  0  0  0  0  0  0  0  0  0
   70.3400   36.9970    0.8550 C   0  0  0  0  0  0  0  0  0  0  0  0
   69.7100   38.0730    0.2360 C   0  0  0  0  0  0  0  0  0  0  0  0
   68.3730   38.2300    0.4800 O   0  0  0  0  0  0  0  0  0  0  0  0
   70.4410   38.9290   -0.5920 C   0  0  0  0  0  0  0  0  0  0  0  0
   69.8160   40.0700   -1.2630 C   0  0  0  0  0  0  0  0  0  0  0  0
   68.6220   40.3260   -1.1370 O   0  0  0  0  0  0  0  0  0  0  0  0
   70.6810   40.9210   -2.1140 C   0  0  0  0  0  0  0  0  0  0  0  0
   70.0790   41.9860   -2.7560 O   0  0  0  0  0  0  0  0  0  0  0  0
   74.0860   41.9230   -2.4730 C   0  0  0  0  0  0  0  0  0  0  0  0
   75.0070   42.6830   -3.2250 C   0  0  0  0  0  0  0  0  0  0  0  0
   76.2320   43.2530   -2.5530 C   0  0  0  0  0  0  0  0  0  0  0  0
   76.3400   42.8720   -1.2420 F   0  0  0  0  0  0  0  0  0  0  0  0
   76.2550   44.6180   -2.5200 F   0  0  0  0  0  0  0  0  0  0  0  0
   77.4060   42.8600   -3.1270 F   0  0  0  0  0  0  0  0  0  0  0  0
   75.1640   44.9640   -5.7920 C   0  0  0  0  0  0  0  0  0  0  0  0
   76.2900   45.7790   -6.4700 C   0  0  0  0  0  0  0  0  0  0  0  0
   78.6043   46.2705   -7.3725 H   0  0  0  0  0  0  0  0  0  0  0  0
   78.6289   45.1832   -8.8021 H   0  0  0  0  0  0  0  0  0  0  0  0
   77.5824   46.6432   -8.8021 H   0  0  0  0  0  0  0  0  0  0  0  0
   76.2080   44.9060   -8.3320 H   0  0  0  0  0  0  0  0  0  0  0  0
   77.8015   43.1823   -7.9901 H   0  0  0  0  0  0  0  0  0  0  0  0
   78.1823   43.9313   -6.3763 H   0  0  0  0  0  0  0  0  0  0  0  0
   75.5185   42.6572   -7.1989 H   0  0  0  0  0  0  0  0  0  0  0  0
   76.7356   41.9645   -6.0695 H   0  0  0  0  0  0  0  0  0  0  0  0
   73.4182   42.5193   -6.2407 H   0  0  0  0  0  0  0  0  0  0  0  0
   71.8099   41.1923   -4.8949 H   0  0  0  0  0  0  0  0  0  0  0  0
   73.5077   37.4585   -0.3421 H   0  0  0  0  0  0  0  0  0  0  0  0
   72.2022   35.9268    1.1386 H   0  0  0  0  0  0  0  0  0  0  0  0
   69.7647   36.3218    1.5055 H   0  0  0  0  0  0  0  0  0  0  0  0
   67.7870   38.4190   -0.2270 H   0  0  0  0  0  0  0  0  0  0  0  0
   69.2680   42.3300   -2.4350 H   0  0  0  0  0  0  0  0  0  0  0  0
   74.2746   41.7596   -1.4017 H   0  0  0  0  0  0  0  0  0  0  0  0
   74.3490   44.7987   -6.5121 H   0  0  0  0  0  0  0  0  0  0  0  0
   74.7850   45.5227   -4.9235 H   0  0  0  0  0  0  0  0  0  0  0  0
   75.8672   46.7238   -6.8423 H   0  0  0  0  0  0  0  0  0  0  0  0
   77.0742   45.9565   -5.7193 H   0  0  0  0  0  0  0  0  0  0  0  0
  1  2  1  0
  2  3  1  0
  3  4  1  0
  4  5  1  0
  5  6  1  0
  6  7  2  0
  7  8  1  0
  8  9  2  0
  9 10  1  0
 10 11  1  0
 11 12  1  0
 12 13  2  0
 13 14  1  0
 14 15  2  0
 15 16  1  0
 16 17  1  0
 16 18  2  0
 18 19  1  0
 19 20  2  0
 19 21  1  0
 21 22  1  0
  9 23  1  0
 23 24  2  0
 24 25  1  0
 25 26  1  0
 25 27  1  0
 25 28  1  0
  5 29  1  0
 29 30  1  0
 30  2  1  0
 24  6  1  0
 21 10  2  0
 18 12  1  0
  1 31  1  0
  1 32  1  0
  1 33  1  0
  2 34  1  0
  3 35  1  0
  3 36  1  0
  4 37  1  0
  4 38  1  0
  7 39  1  0
  8 40  1  0
 13 41  1  0
 14 42  1  0
 15 43  1  0
 17 44  1  0
 22 45  1  0
 23 46  1  0
 29 47  1  0
 29 48  1  0
 30 49  1  0
 30 50  1  0
M  CHG  1   2   1
M  END
>  <meeko>  (2) 
{"is_sidechain": [false], "free_energy": -8.186, "intermolecular_energy": -10.052, "internal_energy": -0.578}

$$$$
cand_013_out
     RDKit          3D

 50 53  0  0  0  0  0  0  0  0999 V2000
   78.4120   47.7190   -4.9910 C   0  0  0  0  0  0  0  0  0  0  0  0
   77.0890   47.1130   -4.8600 N   0  0  0  0  0  0  0  0  0  0  0  0
   77.1170   45.7010   -5.3110 C   0  0  0  0  0  0  0  0  0  0  0  0
   75.7500   44.9970   -5.1380 C   0  0  0  0  0  0  0  0  0  0  0  0
   75.3160   45.0800   -3.7230 N   0  0  0  0  0  0  0  0  0  0  0  0
   74.1480   44.3460   -3.4590 C   0  0  0  0  0  0  0  0  0  0  0  0
   72.8740   44.8260   -3.7990 C   0  0  0  0  0  0  0  0  0  0  0  0
   71.7220   44.0800   -3.5330 C   0  0  0  0  0  0  0  0  0  0  0  0
   71.8090   42.8250   -2.9260 C   0  0  0  0  0  0  0  0  0  0  0  0
   70.6070   42.0260   -2.6090 C   0  0  0  0  0  0  0  0  0  0  0  0
   70.7670   41.2330   -1.4780 O   0  0  0  0  0  0  0  0  0  0  0  0
   69.7270   40.4370   -1.0730 C   0  0  0  0  0  0  0  0  0  0  0  0
   69.9280   39.6670    0.0740 C   0  0  0  0  0  0  0  0  0  0  0  0
   68.9080   38.8340    0.5410 C   0  0  0  0  0  0  0  0  0  0  0  0
   67.6900   38.7700   -0.1390 C   0  0  0  0  0  0  0  0  0  0  0  0
   67.4920   39.5400   -1.2810 C   0  0  0  0  0  0  0  0  0  0  0  0
   66.2760   39.4290   -1.8980 O   0  0  0  0  0  0  0  0  0  0  0  0
   68.5120   40.3740   -1.7480 C   0  0  0  0  0  0  0  0  0  0  0  0
   68.3460   41.1970   -2.9470 C   0  0  0  0  0  0  0  0  0  0  0  0
   67.3070   41.1920   -3.6020 O   0  0  0  0  0  0  0  0  0  0  0  0
   69.4860   42.0520   -3.3540 C   0  0  0  0  0  0  0  0  0  0  0  0
   69.3240   42.8140   -4.4950 O   0  0  0  0  0  0  0  0  0  0  0  0
   73.0800   42.3450   -2.5780 C   0  0  0  0  0  0  0  0  0  0  0  0
   74.2500   43.0880   -2.8410 C   0  0  0  0  0  0  0  0  0  0  0  0
   75.5960   42.5270   -2.4520 C   0  0  0  0  0  0  0  0  0  0  0  0
   75.4970   41.3480   -1.7630 F   0  0  0  0  0  0  0  0  0  0  0  0
   76.3170   43.3470   -1.6320 F   0  0  0  0  0  0  0  0  0  0  0  0
   76.4000   42.2410   -3.5170 F   0  0  0  0  0  0  0  0  0  0  0  0
   75.2550   46.4850   -3.2550 C   0  0  0  0  0  0  0  0  0  0  0  0
   76.6300   47.1650   -3.4520 C   0  0  0  0  0  0  0  0  0  0  0  0
   78.8286   47.9098   -3.9910 H   0  0  0  0  0  0  0  0  0  0  0  0
   79.0758   47.0352   -5.5403 H   0  0  0  0  0  0  0  0  0  0  0  0
   78.3277   48.6683   -5.5403 H   0  0  0  0  0  0  0  0  0  0  0  0
   76.4420   47.6410   -5.4460 H   0  0  0  0  0  0  0  0  0  0  0  0
   77.3947   45.6759   -6.3751 H   0  0  0  0  0  0  0  0  0  0  0  0
   77.8499   45.1658   -4.6893 H   0  0  0  0  0  0  0  0  0  0  0  0
   75.0028   45.4887   -5.7783 H   0  0  0  0  0  0  0  0  0  0  0  0
   75.8478   43.9398   -5.4257 H   0  0  0  0  0  0  0  0  0  0  0  0
   72.7799   45.8086   -4.2844 H   0  0  0  0  0  0  0  0  0  0  0  0
   70.7363   44.4858   -3.8047 H   0  0  0  0  0  0  0  0  0  0  0  0
   70.8878   39.7160    0.6092 H   0  0  0  0  0  0  0  0  0  0  0  0
   69.0647   38.2279    1.4455 H   0  0  0  0  0  0  0  0  0  0  0  0
   66.8884   38.1119    0.2275 H   0  0  0  0  0  0  0  0  0  0  0  0
   66.1260   38.7420   -2.5180 H   0  0  0  0  0  0  0  0  0  0  0  0
   69.9310   43.5010   -4.6900 H   0  0  0  0  0  0  0  0  0  0  0  0
   73.1668   41.3642   -2.0875 H   0  0  0  0  0  0  0  0  0  0  0  0
   74.4929   47.0291   -3.8322 H   0  0  0  0  0  0  0  0  0  0  0  0
   74.9930   46.5001   -2.1868 H   0  0  0  0  0  0  0  0  0  0  0  0
   76.5505   48.2183   -3.1450 H   0  0  0  0  0  0  0  0  0  0  0  0
   77.3641   46.6211   -2.8395 H   0  0  0  0  0  0  0  0  0  0  0  0
  1  2  1  0
  2  3  1  0
  3  4  1  0
  4  5  1  0
  5  6  1  0
  6  7  2  0
  7  8  1  0
  8  9  2  0
  9 10  1  0
 10 11  1  0
 11 12  1  0
 12 13  2  0
 13 14  1  0
 14 15  2  0
 15 16  1  0
 16 17  1  0
 16 18  2  0
 18 19  1  0
 19 20  2  0
 19 21  1  0
 21 22  1  0
  9 23  1  0
 23 24  2  0
 24 25  1  0
 25 26  1  0
 25 27  1  0
 25 28  1  0
  5 29  1  0
 29 30  1  0
 30  2  1  0
 24  6  1  0
 21 10  2  0
 18 12  1  0
  1 31  1  0
  1 32  1  0
  1 33  1  0
  2 34  1  0
  3 35  1  0
  3 36  1  0
  4 37  1  0
  4 38  1  0
  7 39  1  0
  8 40  1  0
 13 41  1  0
 14 42  1  0
 15 43  1  0
 17 44  1  0
 22 45  1  0
 23 46  1  0
 29 47  1  0
 29 48  1  0
 30 49  1  0
 30 50  1  0
M  CHG  1   2   1
M  END
>  <meeko>  (3) 
{"is_sidechain": [false], "free_energy": -8.062, "intermolecular_energy": -10.195, "internal_energy": -0.282}

$$$$
cand_013_out
     RDKit          3D

 50 53  0  0  0  0  0  0  0  0999 V2000
   69.1110   47.9670   -8.4980 C   0  0  0  0  0  0  0  0  0  0  0  0
   69.4180   46.7370   -7.7710 N   0  0  0  0  0  0  0  0  0  0  0  0
   70.1160   47.0440   -6.5010 C   0  0  0  0  0  0  0  0  0  0  0  0
   70.4140   45.7760   -5.6660 C   0  0  0  0  0  0  0  0  0  0  0  0
   69.1540   45.0420   -5.3990 N   0  0  0  0  0  0  0  0  0  0  0  0
   69.3230   43.9500   -4.5310 C   0  0  0  0  0  0  0  0  0  0  0  0
   70.2420   42.9240   -4.7960 C   0  0  0  0  0  0  0  0  0  0  0  0
   70.4010   41.8470   -3.9200 C   0  0  0  0  0  0  0  0  0  0  0  0
   69.6500   41.7670   -2.7440 C   0  0  0  0  0  0  0  0  0  0  0  0
   69.7770   40.6270   -1.8120 C   0  0  0  0  0  0  0  0  0  0  0  0
   71.0770   40.1380   -1.7330 O   0  0  0  0  0  0  0  0  0  0  0  0
   71.3360   39.0750   -0.9050 C   0  0  0  0  0  0  0  0  0  0  0  0
   72.6550   38.6250   -0.8480 C   0  0  0  0  0  0  0  0  0  0  0  0
   72.9870   37.5460   -0.0240 C   0  0  0  0  0  0  0  0  0  0  0  0
   72.0010   36.9180    0.7390 C   0  0  0  0  0  0  0  0  0  0  0  0
   70.6850   37.3710    0.6800 C   0  0  0  0  0  0  0  0  0  0  0  0
   69.7690   36.7100    1.4530 O   0  0  0  0  0  0  0  0  0  0  0  0
   70.3540   38.4500   -0.1440 C   0  0  0  0  0  0  0  0  0  0  0  0
   68.9830   38.9550   -0.2360 C   0  0  0  0  0  0  0  0  0  0  0  0
   68.0590   38.4530    0.3990 O   0  0  0  0  0  0  0  0  0  0  0  0
   68.7380   40.1080   -1.1330 C   0  0  0  0  0  0  0  0  0  0  0  0
   67.4370   40.5680   -1.2250 O   0  0  0  0  0  0  0  0  0  0  0  0
   68.7240   42.7870   -2.4800 C   0  0  0  0  0  0  0  0  0  0  0  0
   68.5540   43.8790   -3.3570 C   0  0  0  0  0  0  0  0  0  0  0  0
   67.5490   44.9560   -3.0270 C   0  0  0  0  0  0  0  0  0  0  0  0
   66.9210   44.7400   -1.8290 F   0  0  0  0  0  0  0  0  0  0  0  0
   66.5360   45.0570   -3.9360 F   0  0  0  0  0  0  0  0  0  0  0  0
   68.0950   46.2010   -2.9130 F   0  0  0  0  0  0  0  0  0  0  0  0
   68.4470   44.7000   -6.6560 C   0  0  0  0  0  0  0  0  0  0  0  0
   68.1770   45.9840   -7.4740 C   0  0  0  0  0  0  0  0  0  0  0  0
   68.9090   48.7762   -7.7807 H   0  0  0  0  0  0  0  0  0  0  0  0
   69.9679   48.2428   -9.1302 H   0  0  0  0  0  0  0  0  0  0  0  0
   68.2250   47.8078   -9.1302 H   0  0  0  0  0  0  0  0  0  0  0  0
   70.0250   46.1670   -8.3600 H   0  0  0  0  0  0  0  0  0  0  0  0
   71.0675   47.5446   -6.7337 H   0  0  0  0  0  0  0  0  0  0  0  0
   69.4545   47.6890   -5.9040 H   0  0  0  0  0  0  0  0  0  0  0  0
   71.1042   45.1257   -6.2235 H   0  0  0  0  0  0  0  0  0  0  0  0
   70.8720   46.0703   -4.7102 H   0  0  0  0  0  0  0  0  0  0  0  0
   70.8497   42.9681   -5.7118 H   0  0  0  0  0  0  0  0  0  0  0  0
   71.1249   41.0538   -4.1585 H   0  0  0  0  0  0  0  0  0  0  0  0
   73.4322   39.1182   -1.4502 H   0  0  0  0  0  0  0  0  0  0  0  0
   74.0271   37.1910    0.0234 H   0  0  0  0  0  0  0  0  0  0  0  0
   72.2627   36.0673    1.3854 H   0  0  0  0  0  0  0  0  0  0  0  0
   70.0590   36.1580    2.1530 H   0  0  0  0  0  0  0  0  0  0  0  0
   67.1640   41.0520   -1.9790 H   0  0  0  0  0  0  0  0  0  0  0  0
   68.1147   42.7341   -1.5657 H   0  0  0  0  0  0  0  0  0  0  0  0
   69.0691   44.0137   -7.2492 H   0  0  0  0  0  0  0  0  0  0  0  0
   67.4889   44.2173   -6.4128 H   0  0  0  0  0  0  0  0  0  0  0  0
   67.6984   45.7034   -8.4238 H   0  0  0  0  0  0  0  0  0  0  0  0
   67.5265   46.6347   -6.8711 H   0  0  0  0  0  0  0  0  0  0  0  0
  1  2  1  0
  2  3  1  0
  3  4  1  0
  4  5  1  0
  5  6  1  0
  6  7  2  0
  7  8  1  0
  8  9  2  0
  9 10  1  0
 10 11  1  0
 11 12  1  0
 12 13  2  0
 13 14  1  0
 14 15  2  0
 15 16  1  0
 16 17  1  0
 16 18  2  0
 18 19  1  0
 19 20  2  0
 19 21  1  0
 21 22  1  0
  9 23  1  0
 23 24  2  0
 24 25  1  0
 25 26  1  0
 25 27  1  0
 25 28  1  0
  5 29  1  0
 29 30  1  0
 30  2  1  0
 24  6  1  0
 21 10  2  0
 18 12  1  0
  1 31  1  0
  1 32  1  0
  1 33  1  0
  2 34  1  0
  3 35  1  0
  3 36  1  0
  4 37  1  0
  4 38  1  0
  7 39  1  0
  8 40  1  0
 13 41  1  0
 14 42  1  0
 15 43  1  0
 17 44  1  0
 22 45  1  0
 23 46  1  0
 29 47  1  0
 29 48  1  0
 30 49  1  0
 30 50  1  0
M  CHG  1   2   1
M  END
>  <meeko>  (4) 
{"is_sidechain": [false], "free_energy": -8.059, "intermolecular_energy": -10.198, "internal_energy": -0.276}

$$$$
cand_013_out
     RDKit          3D

 50 53  0  0  0  0  0  0  0  0999 V2000
   67.5700   47.4900   -8.7060 C   0  0  0  0  0  0  0  0  0  0  0  0
   68.3130   46.4220   -8.0420 N   0  0  0  0  0  0  0  0  0  0  0  0
   68.9290   46.9190   -6.7890 C   0  0  0  0  0  0  0  0  0  0  0  0
   69.6820   45.8090   -6.0180 C   0  0  0  0  0  0  0  0  0  0  0  0
   68.7620   44.6830   -5.7300 N   0  0  0  0  0  0  0  0  0  0  0  0
   69.3360   43.6930   -4.9140 C   0  0  0  0  0  0  0  0  0  0  0  0
   70.5360   43.0510   -5.2550 C   0  0  0  0  0  0  0  0  0  0  0  0
   71.0960   42.0730   -4.4290 C   0  0  0  0  0  0  0  0  0  0  0  0
   70.4760   41.7110   -3.2300 C   0  0  0  0  0  0  0  0  0  0  0  0
   71.0310   40.6620   -2.3500 C   0  0  0  0  0  0  0  0  0  0  0  0
   70.0710   40.0850   -1.5250 O   0  0  0  0  0  0  0  0  0  0  0  0
   70.4520   39.0970   -0.6540 C   0  0  0  0  0  0  0  0  0  0  0  0
   69.4550   38.5390    0.1460 C   0  0  0  0  0  0  0  0  0  0  0  0
   69.7760   37.5280    1.0560 C   0  0  0  0  0  0  0  0  0  0  0  0
   71.0920   37.0770    1.1650 C   0  0  0  0  0  0  0  0  0  0  0  0
   72.0850   37.6350    0.3650 C   0  0  0  0  0  0  0  0  0  0  0  0
   73.3540   37.1470    0.5230 O   0  0  0  0  0  0  0  0  0  0  0  0
   71.7640   38.6460   -0.5450 C   0  0  0  0  0  0  0  0  0  0  0  0
   72.7780   39.2610   -1.4030 C   0  0  0  0  0  0  0  0  0  0  0  0
   73.9590   38.9230   -1.3610 O   0  0  0  0  0  0  0  0  0  0  0  0
   72.3330   40.3200   -2.3380 C   0  0  0  0  0  0  0  0  0  0  0  0
   73.3010   40.9050   -3.1330 O   0  0  0  0  0  0  0  0  0  0  0  0
   69.2730   42.3460   -2.8900 C   0  0  0  0  0  0  0  0  0  0  0  0
   68.6970   43.3350   -3.7160 C   0  0  0  0  0  0  0  0  0  0  0  0
   67.4030   43.9930   -3.3040 C   0  0  0  0  0  0  0  0  0  0  0  0
   66.9110   43.4980   -2.1260 F   0  0  0  0  0  0  0  0  0  0  0  0
   66.3900   43.8200   -4.2020 F   0  0  0  0  0  0  0  0  0  0  0  0
   67.5120   45.3380   -3.0970 F   0  0  0  0  0  0  0  0  0  0  0  0
   68.1510   44.1500   -6.9710 C   0  0  0  0  0  0  0  0  0  0  0  0
   67.4180   45.2840   -7.7260 C   0  0  0  0  0  0  0  0  0  0  0  0
   67.1143   48.1451   -7.9489 H   0  0  0  0  0  0  0  0  0  0  0  0
   68.2554   48.0775   -9.3346 H   0  0  0  0  0  0  0  0  0  0  0  0
   66.7808   47.0517   -9.3346 H   0  0  0  0  0  0  0  0  0  0  0  0
   69.0470   46.1080   -8.6770 H   0  0  0  0  0  0  0  0  0  0  0  0
   69.6406   47.7196   -7.0392 H   0  0  0  0  0  0  0  0  0  0  0  0
   68.1192   47.2855   -6.1410 H   0  0  0  0  0  0  0  0  0  0  0  0
   70.5224   45.4466   -6.6283 H   0  0  0  0  0  0  0  0  0  0  0  0
   70.0609   46.2191   -5.0702 H   0  0  0  0  0  0  0  0  0  0  0  0
   71.0460   43.3229   -6.1910 H   0  0  0  0  0  0  0  0  0  0  0  0
   72.0350   41.5827   -4.7257 H   0  0  0  0  0  0  0  0  0  0  0  0
   68.4174   38.8942    0.0608 H   0  0  0  0  0  0  0  0  0  0  0  0
   68.9902   37.0872    1.6871 H   0  0  0  0  0  0  0  0  0  0  0  0
   71.3442   36.2818    1.8820 H   0  0  0  0  0  0  0  0  0  0  0  0
   73.7430   37.1230    1.3760 H   0  0  0  0  0  0  0  0  0  0  0  0
   73.8490   41.5800   -2.7840 H   0  0  0  0  0  0  0  0  0  0  0  0
   68.7650   42.0662   -1.9553 H   0  0  0  0  0  0  0  0  0  0  0  0
   68.9388   43.7327   -7.6153 H   0  0  0  0  0  0  0  0  0  0  0  0
   67.4285   43.3628   -6.7098 H   0  0  0  0  0  0  0  0  0  0  0  0
   67.0151   44.8796   -8.6663 H   0  0  0  0  0  0  0  0  0  0  0  0
   66.6164   45.6588   -7.0726 H   0  0  0  0  0  0  0  0  0  0  0  0
  1  2  1  0
  2  3  1  0
  3  4  1  0
  4  5  1  0
  5  6  1  0
  6  7  2  0
  7  8  1  0
  8  9  2  0
  9 10  1  0
 10 11  1  0
 11 12  1  0
 12 13  2  0
 13 14  1  0
 14 15  2  0
 15 16  1  0
 16 17  1  0
 16 18  2  0
 18 19  1  0
 19 20  2  0
 19 21  1  0
 21 22  1  0
  9 23  1  0
 23 24  2  0
 24 25  1  0
 25 26  1  0
 25 27  1  0
 25 28  1  0
  5 29  1  0
 29 30  1  0
 30  2  1  0
 24  6  1  0
 21 10  2  0
 18 12  1  0
  1 31  1  0
  1 32  1  0
  1 33  1  0
  2 34  1  0
  3 35  1  0
  3 36  1  0
  4 37  1  0
  4 38  1  0
  7 39  1  0
  8 40  1  0
 13 41  1  0
 14 42  1  0
 15 43  1  0
 17 44  1  0
 22 45  1  0
 23 46  1  0
 29 47  1  0
 29 48  1  0
 30 49  1  0
 30 50  1  0
M  CHG  1   2   1
M  END
>  <meeko>  (5) 
{"is_sidechain": [false], "free_energy": -7.944, "intermolecular_energy": -10.099, "internal_energy": -0.233}

$$$$
cand_013_out
     RDKit          3D

 50 53  0  0  0  0  0  0  0  0999 V2000
   78.5890   46.0310   -7.1310 C   0  0  0  0  0  0  0  0  0  0  0  0
   77.9390   45.1930   -6.1270 N   0  0  0  0  0  0  0  0  0  0  0  0
   76.6970   45.8350   -5.6380 C   0  0  0  0  0  0  0  0  0  0  0  0
   75.9400   44.9590   -4.6120 C   0  0  0  0  0  0  0  0  0  0  0  0
   75.6380   43.6350   -5.2060 N   0  0  0  0  0  0  0  0  0  0  0  0
   74.8330   42.8290   -4.3840 C   0  0  0  0  0  0  0  0  0  0  0  0
   75.2990   42.3070   -3.1680 C   0  0  0  0  0  0  0  0  0  0  0  0
   74.4830   41.5120   -2.3590 C   0  0  0  0  0  0  0  0  0  0  0  0
   73.1700   41.2200   -2.7380 C   0  0  0  0  0  0  0  0  0  0  0  0
   72.2940   40.3590   -1.9160 C   0  0  0  0  0  0  0  0  0  0  0  0
   70.9570   40.7390   -1.9720 O   0  0  0  0  0  0  0  0  0  0  0  0
   70.0340   40.0260   -1.2510 C   0  0  0  0  0  0  0  0  0  0  0  0
   68.7030   40.4350   -1.3460 C   0  0  0  0  0  0  0  0  0  0  0  0
   67.7120   39.7520   -0.6360 C   0  0  0  0  0  0  0  0  0  0  0  0
   68.0520   38.6620    0.1670 C   0  0  0  0  0  0  0  0  0  0  0  0
   69.3810   38.2560    0.2600 C   0  0  0  0  0  0  0  0  0  0  0  0
   69.6440   37.1820    1.0660 O   0  0  0  0  0  0  0  0  0  0  0  0
   70.3720   38.9400   -0.4500 C   0  0  0  0  0  0  0  0  0  0  0  0
   71.7800   38.5460   -0.3790 C   0  0  0  0  0  0  0  0  0  0  0  0
   72.1590   37.6030    0.3110 O   0  0  0  0  0  0  0  0  0  0  0  0
   72.7510   39.3320   -1.1750 C   0  0  0  0  0  0  0  0  0  0  0  0
   74.0800   38.9630   -1.0890 O   0  0  0  0  0  0  0  0  0  0  0  0
   72.7030   41.7330   -3.9560 C   0  0  0  0  0  0  0  0  0  0  0  0
   73.5180   42.5380   -4.7820 C   0  0  0  0  0  0  0  0  0  0  0  0
   72.9680   43.0720   -6.0820 C   0  0  0  0  0  0  0  0  0  0  0  0
   73.5570   42.4990   -7.1780 F   0  0  0  0  0  0  0  0  0  0  0  0
   73.1610   44.4140   -6.2490 F   0  0  0  0  0  0  0  0  0  0  0  0
   71.6330   42.8480   -6.2480 F   0  0  0  0  0  0  0  0  0  0  0  0
   76.8690   42.9590   -5.6810 C   0  0  0  0  0  0  0  0  0  0  0  0
   77.6090   43.8640   -6.6930 C   0  0  0  0  0  0  0  0  0  0  0  0
   79.1892   46.8048   -6.6299 H   0  0  0  0  0  0  0  0  0  0  0  0
   79.2434   45.4092   -7.7596 H   0  0  0  0  0  0  0  0  0  0  0  0
   77.8240   46.5102   -7.7596 H   0  0  0  0  0  0  0  0  0  0  0  0
   78.5870   45.0760   -5.3480 H   0  0  0  0  0  0  0  0  0  0  0  0
   76.9587   46.7907   -5.1604 H   0  0  0  0  0  0  0  0  0  0  0  0
   76.0346   45.9826   -6.5037 H   0  0  0  0  0  0  0  0  0  0  0  0
   76.5646   44.8234   -3.7167 H   0  0  0  0  0  0  0  0  0  0  0  0
   74.9982   45.4559   -4.3360 H   0  0  0  0  0  0  0  0  0  0  0  0
   76.3271   42.5279   -2.8451 H   0  0  0  0  0  0  0  0  0  0  0  0
   74.8783   41.1117   -1.4137 H   0  0  0  0  0  0  0  0  0  0  0  0
   68.4345   41.2937   -1.9788 H   0  0  0  0  0  0  0  0  0  0  0  0
   66.6627   40.0737   -0.7100 H   0  0  0  0  0  0  0  0  0  0  0  0
   67.2715   38.1245    0.7255 H   0  0  0  0  0  0  0  0  0  0  0  0
   70.3890   37.1950    1.6340 H   0  0  0  0  0  0  0  0  0  0  0  0
   74.5350   39.0370   -0.2730 H   0  0  0  0  0  0  0  0  0  0  0  0
   71.6762   41.5029   -4.2764 H   0  0  0  0  0  0  0  0  0  0  0  0
   77.5276   42.7559   -4.8237 H   0  0  0  0  0  0  0  0  0  0  0  0
   76.5964   42.0134   -6.1725 H   0  0  0  0  0  0  0  0  0  0  0  0
   78.5428   43.3668   -6.9944 H   0  0  0  0  0  0  0  0  0  0  0  0
   76.9407   44.0222   -7.5523 H   0  0  0  0  0  0  0  0  0  0  0  0
  1  2  1  0
  2  3  1  0
  3  4  1  0
  4  5  1  0
  5  6  1  0
  6  7  2  0
  7  8  1  0
  8  9  2  0
  9 10  1  0
 10 11  1  0
 11 12  1  0
 12 13  2  0
 13 14  1  0
 14 15  2  0
 15 16  1  0
 16 17  1  0
 16 18  2  0
 18 19  1  0
 19 20  2  0
 19 21  1  0
 21 22  1  0
  9 23  1  0
 23 24  2  0
 24 25  1  0
 25 26  1  0
 25 27  1  0
 25 28  1  0
  5 29  1  0
 29 30  1  0
 30  2  1  0
 24  6  1  0
 21 10  2  0
 18 12  1  0
  1 31  1  0
  1 32  1  0
  1 33  1  0
  2 34  1  0
  3 35  1  0
  3 36  1  0
  4 37  1  0
  4 38  1  0
  7 39  1  0
  8 40  1  0
 13 41  1  0
 14 42  1  0
 15 43  1  0
 17 44  1  0
 22 45  1  0
 23 46  1  0
 29 47  1  0
 29 48  1  0
 30 49  1  0
 30 50  1  0
M  CHG  1   2   1
M  END
>  <meeko>  (6) 
{"is_sidechain": [false], "free_energy": -7.899, "intermolecular_energy": -10.03, "internal_energy": -0.245}

$$$$
cand_013_out
     RDKit          3D

 50 53  0  0  0  0  0  0  0  0999 V2000
   66.7300   49.2150   -6.6930 C   0  0  0  0  0  0  0  0  0  0  0  0
   66.8050   48.1050   -5.7460 N   0  0  0  0  0  0  0  0  0  0  0  0
   66.6580   46.8090   -6.4500 C   0  0  0  0  0  0  0  0  0  0  0  0
   66.7880   45.5980   -5.4970 C   0  0  0  0  0  0  0  0  0  0  0  0
   68.0870   45.6540   -4.7850 N   0  0  0  0  0  0  0  0  0  0  0  0
   68.3380   44.5160   -4.0000 C   0  0  0  0  0  0  0  0  0  0  0  0
   67.6300   44.2570   -2.8170 C   0  0  0  0  0  0  0  0  0  0  0  0
   67.8890   43.1170   -2.0510 C   0  0  0  0  0  0  0  0  0  0  0  0
   68.8600   42.1940   -2.4500 C   0  0  0  0  0  0  0  0  0  0  0  0
   69.1740   40.9950   -1.6460 C   0  0  0  0  0  0  0  0  0  0  0  0
   70.5380   40.7370   -1.5700 O   0  0  0  0  0  0  0  0  0  0  0  0
   70.9690   39.6480   -0.8560 C   0  0  0  0  0  0  0  0  0  0  0  0
   72.3460   39.4350   -0.7970 C   0  0  0  0  0  0  0  0  0  0  0  0
   72.8520   38.3430   -0.0860 C   0  0  0  0  0  0  0  0  0  0  0  0
   71.9800   37.4670    0.5640 C   0  0  0  0  0  0  0  0  0  0  0  0
   70.6060   37.6830    0.5030 C   0  0  0  0  0  0  0  0  0  0  0  0
   69.8100   36.7860    1.1620 O   0  0  0  0  0  0  0  0  0  0  0  0
   70.1010   38.7750   -0.2080 C   0  0  0  0  0  0  0  0  0  0  0  0
   68.6640   39.0370   -0.2970 C   0  0  0  0  0  0  0  0  0  0  0  0
   67.8340   38.3090    0.2410 O   0  0  0  0  0  0  0  0  0  0  0  0
   68.2320   40.2250   -1.0700 C   0  0  0  0  0  0  0  0  0  0  0  0
   66.8720   40.4550   -1.1620 O   0  0  0  0  0  0  0  0  0  0  0  0
   69.5750   42.4550   -3.6280 C   0  0  0  0  0  0  0  0  0  0  0  0
   69.3230   43.6020   -4.4100 C   0  0  0  0  0  0  0  0  0  0  0  0
   70.1150   43.8360   -5.6730 C   0  0  0  0  0  0  0  0  0  0  0  0
   71.1030   42.9060   -5.8550 F   0  0  0  0  0  0  0  0  0  0  0  0
   70.7620   45.0380   -5.7000 F   0  0  0  0  0  0  0  0  0  0  0  0
   69.3650   43.7740   -6.8110 F   0  0  0  0  0  0  0  0  0  0  0  0
   68.2490   46.9320   -4.0500 C   0  0  0  0  0  0  0  0  0  0  0  0
   68.1000   48.1220   -5.0260 C   0  0  0  0  0  0  0  0  0  0  0  0
   66.6659   50.1643   -6.1409 H   0  0  0  0  0  0  0  0  0  0  0  0
   67.6299   49.2188   -7.3255 H   0  0  0  0  0  0  0  0  0  0  0  0
   65.8377   49.0977   -7.3255 H   0  0  0  0  0  0  0  0  0  0  0  0
   66.0450   48.2120   -5.0750 H   0  0  0  0  0  0  0  0  0  0  0  0
   65.6674   46.7774   -6.9272 H   0  0  0  0  0  0  0  0  0  0  0  0
   67.4673   46.7384   -7.1917 H   0  0  0  0  0  0  0  0  0  0  0  0
   65.9686   45.6214   -4.7635 H   0  0  0  0  0  0  0  0  0  0  0  0
   66.7358   44.6685   -6.0830 H   0  0  0  0  0  0  0  0  0  0  0  0
   66.8559   44.9649   -2.4858 H   0  0  0  0  0  0  0  0  0  0  0  0
   67.3226   42.9442   -1.1240 H   0  0  0  0  0  0  0  0  0  0  0  0
   73.0327   40.1251   -1.3091 H   0  0  0  0  0  0  0  0  0  0  0  0
   73.9378   38.1736   -0.0385 H   0  0  0  0  0  0  0  0  0  0  0  0
   72.3782   36.6076    1.1234 H   0  0  0  0  0  0  0  0  0  0  0  0
   69.0650   37.0870    1.6440 H   0  0  0  0  0  0  0  0  0  0  0  0
   66.4890   40.6760   -1.9880 H   0  0  0  0  0  0  0  0  0  0  0  0
   70.3525   41.7470   -3.9507 H   0  0  0  0  0  0  0  0  0  0  0  0
   67.4790   47.0031   -3.2677 H   0  0  0  0  0  0  0  0  0  0  0  0
   69.2484   46.9623   -3.5914 H   0  0  0  0  0  0  0  0  0  0  0  0
   68.1737   49.0588   -4.4543 H   0  0  0  0  0  0  0  0  0  0  0  0
   68.9010   48.0424   -5.7757 H   0  0  0  0  0  0  0  0  0  0  0  0
  1  2  1  0
  2  3  1  0
  3  4  1  0
  4  5  1  0
  5  6  1  0
  6  7  2  0
  7  8  1  0
  8  9  2  0
  9 10  1  0
 10 11  1  0
 11 12  1  0
 12 13  2  0
 13 14  1  0
 14 15  2  0
 15 16  1  0
 16 17  1  0
 16 18  2  0
 18 19  1  0
 19 20  2  0
 19 21  1  0
 21 22  1  0
  9 23  1  0
 23 24  2  0
 24 25  1  0
 25 26  1  0
 25 27  1  0
 25 28  1  0
  5 29  1  0
 29 30  1  0
 30  2  1  0
 24  6  1  0
 21 10  2  0
 18 12  1  0
  1 31  1  0
  1 32  1  0
  1 33  1  0
  2 34  1  0
  3 35  1  0
  3 36  1  0
  4 37  1  0
  4 38  1  0
  7 39  1  0
  8 40  1  0
 13 41  1  0
 14 42  1  0
 15 43  1  0
 17 44  1  0
 22 45  1  0
 23 46  1  0
 29 47  1  0
 29 48  1  0
 30 49  1  0
 30 50  1  0
M  CHG  1   2   1
M  END
>  <meeko>  (7) 
{"is_sidechain": [false], "free_energy": -7.694, "intermolecular_energy": -9.579, "internal_energy": -0.444}

$$$$
cand_013_out
     RDKit          3D

 50 53  0  0  0  0  0  0  0  0999 V2000
   76.8910   48.4490   -6.4120 C   0  0  0  0  0  0  0  0  0  0  0  0
   75.9180   47.6490   -5.6720 N   0  0  0  0  0  0  0  0  0  0  0  0
   75.3860   46.5590   -6.5250 C   0  0  0  0  0  0  0  0  0  0  0  0
   74.3920   45.6470   -5.7680 C   0  0  0  0  0  0  0  0  0  0  0  0
   75.0430   45.0860   -4.5600 N   0  0  0  0  0  0  0  0  0  0  0  0
   74.2480   44.1400   -3.8920 C   0  0  0  0  0  0  0  0  0  0  0  0
   73.0170   44.4780   -3.3110 C   0  0  0  0  0  0  0  0  0  0  0  0
   72.2360   43.5230   -2.6540 C   0  0  0  0  0  0  0  0  0  0  0  0
   72.6600   42.1940   -2.5660 C   0  0  0  0  0  0  0  0  0  0  0  0
   71.8680   41.1690   -1.8550 C   0  0  0  0  0  0  0  0  0  0  0  0
   72.6480   40.1240   -1.3700 O   0  0  0  0  0  0  0  0  0  0  0  0
   72.0380   39.1000   -0.6920 C   0  0  0  0  0  0  0  0  0  0  0  0
   72.8600   38.0800   -0.2130 C   0  0  0  0  0  0  0  0  0  0  0  0
   72.3020   37.0070    0.4870 C   0  0  0  0  0  0  0  0  0  0  0  0
   70.9240   36.9550    0.7060 C   0  0  0  0  0  0  0  0  0  0  0  0
   70.1070   37.9750    0.2270 C   0  0  0  0  0  0  0  0  0  0  0  0
   68.7660   37.8600    0.4760 O   0  0  0  0  0  0  0  0  0  0  0  0
   70.6650   39.0480   -0.4720 C   0  0  0  0  0  0  0  0  0  0  0  0
   69.8410   40.1390   -0.9930 C   0  0  0  0  0  0  0  0  0  0  0  0
   68.6210   40.1620   -0.8470 O   0  0  0  0  0  0  0  0  0  0  0  0
   70.5310   41.2340   -1.7150 C   0  0  0  0  0  0  0  0  0  0  0  0
   69.7420   42.2510   -2.2170 O   0  0  0  0  0  0  0  0  0  0  0  0
   73.8930   41.8530   -3.1390 C   0  0  0  0  0  0  0  0  0  0  0  0
   74.6910   42.8090   -3.8040 C   0  0  0  0  0  0  0  0  0  0  0  0
   76.0090   42.3930   -4.4100 C   0  0  0  0  0  0  0  0  0  0  0  0
   76.2690   41.0590   -4.2400 F   0  0  0  0  0  0  0  0  0  0  0  0
   77.0880   43.0290   -3.8660 F   0  0  0  0  0  0  0  0  0  0  0  0
   76.0810   42.5920   -5.7580 F   0  0  0  0  0  0  0  0  0  0  0  0
   75.5620   46.1570   -3.6760 C   0  0  0  0  0  0  0  0  0  0  0  0
   76.5410   47.0600   -4.4640 C   0  0  0  0  0  0  0  0  0  0  0  0
   77.5410   48.9834   -5.7035 H   0  0  0  0  0  0  0  0  0  0  0  0
   77.5027   47.7892   -7.0448 H   0  0  0  0  0  0  0  0  0  0  0  0
   76.3619   49.1767   -7.0448 H   0  0  0  0  0  0  0  0  0  0  0  0
   75.1530   48.2630   -5.3930 H   0  0  0  0  0  0  0  0  0  0  0  0
   74.8688   47.0058   -7.3869 H   0  0  0  0  0  0  0  0  0  0  0  0
   76.2361   45.9369   -6.8419 H   0  0  0  0  0  0  0  0  0  0  0  0
   73.5123   46.2355   -5.4684 H   0  0  0  0  0  0  0  0  0  0  0  0
   74.0808   44.8236   -6.4277 H   0  0  0  0  0  0  0  0  0  0  0  0
   72.6588   45.5161   -3.3737 H   0  0  0  0  0  0  0  0  0  0  0  0
   71.2783   43.8202   -2.2018 H   0  0  0  0  0  0  0  0  0  0  0  0
   73.9456   38.1202   -0.3860 H   0  0  0  0  0  0  0  0  0  0  0  0
   72.9492   36.2023    0.8660 H   0  0  0  0  0  0  0  0  0  0  0  0
   70.4849   36.1096    1.2560 H   0  0  0  0  0  0  0  0  0  0  0  0
   68.1790   37.6280   -0.2170 H   0  0  0  0  0  0  0  0  0  0  0  0
   69.0290   42.5860   -1.7090 H   0  0  0  0  0  0  0  0  0  0  0  0
   74.2478   40.8142   -3.0687 H   0  0  0  0  0  0  0  0  0  0  0  0
   74.7224   46.7641   -3.3065 H   0  0  0  0  0  0  0  0  0  0  0  0
   76.0924   45.7013   -2.8269 H   0  0  0  0  0  0  0  0  0  0  0  0
   76.8767   47.8754   -3.8064 H   0  0  0  0  0  0  0  0  0  0  0  0
   77.3839   46.4342   -4.7925 H   0  0  0  0  0  0  0  0  0  0  0  0
  1  2  1  0
  2  3  1  0
  3  4  1  0
  4  5  1  0
  5  6  1  0
  6  7  2  0
  7  8  1  0
  8  9  2  0
  9 10  1  0
 10 11  1  0
 11 12  1  0
 12 13  2  0
 13 14  1  0
 14 15  2  0
 15 16  1  0
 16 17  1  0
 16 18  2  0
 18 19  1  0
 19 20  2  0
 19 21  1  0
 21 22  1  0
  9 23  1  0
 23 24  2  0
 24 25  1  0
 25 26  1  0
 25 27  1  0
 25 28  1  0
  5 29  1  0
 29 30  1  0
 30  2  1  0
 24  6  1  0
 21 10  2  0
 18 12  1  0
  1 31  1  0
  1 32  1  0
  1 33  1  0
  2 34  1  0
  3 35  1  0
  3 36  1  0
  4 37  1  0
  4 38  1  0
  7 39  1  0
  8 40  1  0
 13 41  1  0
 14 42  1  0
 15 43  1  0
 17 44  1  0
 22 45  1  0
 23 46  1  0
 29 47  1  0
 29 48  1  0
 30 49  1  0
 30 50  1  0
M  CHG  1   2   1
M  END
>  <meeko>  (8) 
{"is_sidechain": [false], "free_energy": -7.683, "intermolecular_energy": -9.731, "internal_energy": -0.278}

$$$$
cand_013_out
     RDKit          3D

 50 53  0  0  0  0  0  0  0  0999 V2000
   78.5850   46.4050   -6.8680 C   0  0  0  0  0  0  0  0  0  0  0  0
   77.9080   45.5490   -5.8960 N   0  0  0  0  0  0  0  0  0  0  0  0
   76.6760   46.2040   -5.3960 C   0  0  0  0  0  0  0  0  0  0  0  0
   75.8910   45.3120   -4.4050 C   0  0  0  0  0  0  0  0  0  0  0  0
   75.5650   44.0150   -5.0440 N   0  0  0  0  0  0  0  0  0  0  0  0
   74.7360   43.2010   -4.2540 C   0  0  0  0  0  0  0  0  0  0  0  0
   75.1360   42.7310   -2.9940 C   0  0  0  0  0  0  0  0  0  0  0  0
   74.2970   41.9270   -2.2190 C   0  0  0  0  0  0  0  0  0  0  0  0
   73.0240   41.5740   -2.6770 C   0  0  0  0  0  0  0  0  0  0  0  0
   72.1260   40.7030   -1.8900 C   0  0  0  0  0  0  0  0  0  0  0  0
   72.7750   39.5920   -1.3640 O   0  0  0  0  0  0  0  0  0  0  0  0
   72.0560   38.6960   -0.6150 C   0  0  0  0  0  0  0  0  0  0  0  0
   72.7500   37.6030   -0.0970 C   0  0  0  0  0  0  0  0  0  0  0  0
   72.0760   36.6530    0.6760 C   0  0  0  0  0  0  0  0  0  0  0  0
   70.7110   36.7970    0.9290 C   0  0  0  0  0  0  0  0  0  0  0  0
   70.0210   37.8900    0.4120 C   0  0  0  0  0  0  0  0  0  0  0  0
   68.6850   37.9700    0.6970 O   0  0  0  0  0  0  0  0  0  0  0  0
   70.6950   38.8400   -0.3610 C   0  0  0  0  0  0  0  0  0  0  0  0
   70.0070   40.0020   -0.9250 C   0  0  0  0  0  0  0  0  0  0  0  0
   68.8060   40.1960   -0.7520 O   0  0  0  0  0  0  0  0  0  0  0  0
   70.8140   40.9540   -1.7240 C   0  0  0  0  0  0  0  0  0  0  0  0
   70.1510   42.0400   -2.2650 O   0  0  0  0  0  0  0  0  0  0  0  0
   72.6240   42.0360   -3.9380 C   0  0  0  0  0  0  0  0  0  0  0  0
   73.4630   42.8480   -4.7310 C   0  0  0  0  0  0  0  0  0  0  0  0
   72.9850   43.3260   -6.0810 C   0  0  0  0  0  0  0  0  0  0  0  0
   71.6500   43.0940   -6.2790 F   0  0  0  0  0  0  0  0  0  0  0  0
   73.6030   42.7100   -7.1310 F   0  0  0  0  0  0  0  0  0  0  0  0
   73.1370   44.6680   -6.2740 F   0  0  0  0  0  0  0  0  0  0  0  0
   76.7850   43.3270   -5.5310 C   0  0  0  0  0  0  0  0  0  0  0  0
   77.5540   44.2470   -6.5070 C   0  0  0  0  0  0  0  0  0  0  0  0
   79.1827   47.1608   -6.3374 H   0  0  0  0  0  0  0  0  0  0  0  0
   79.2454   45.7921   -7.4991 H   0  0  0  0  0  0  0  0  0  0  0  0
   77.8365   46.9064   -7.4991 H   0  0  0  0  0  0  0  0  0  0  0  0
   78.5470   45.3940   -5.1160 H   0  0  0  0  0  0  0  0  0  0  0  0
   76.9551   47.1375   -4.8854 H   0  0  0  0  0  0  0  0  0  0  0  0
   76.0246   46.3955   -6.2614 H   0  0  0  0  0  0  0  0  0  0  0  0
   76.5048   45.1336   -3.5098 H   0  0  0  0  0  0  0  0  0  0  0  0
   74.9580   45.8205   -4.1205 H   0  0  0  0  0  0  0  0  0  0  0  0
   76.1303   43.0011   -2.6087 H   0  0  0  0  0  0  0  0  0  0  0  0
   74.6414   41.5678   -1.2380 H   0  0  0  0  0  0  0  0  0  0  0  0
   73.8257   37.4886   -0.2963 H   0  0  0  0  0  0  0  0  0  0  0  0
   72.6224   35.7906    1.0855 H   0  0  0  0  0  0  0  0  0  0  0  0
   70.1812   36.0480    1.5360 H   0  0  0  0  0  0  0  0  0  0  0  0
   68.0910   38.3180    0.0620 H   0  0  0  0  0  0  0  0  0  0  0  0
   70.5030   42.9020   -2.1620 H   0  0  0  0  0  0  0  0  0  0  0  0
   71.6304   41.7586   -4.3198 H   0  0  0  0  0  0  0  0  0  0  0  0
   77.4313   43.0815   -4.6755 H   0  0  0  0  0  0  0  0  0  0  0  0
   76.4955   42.4043   -6.0553 H   0  0  0  0  0  0  0  0  0  0  0  0
   78.4792   43.7389   -6.8164 H   0  0  0  0  0  0  0  0  0  0  0  0
   76.8973   44.4475   -7.3663 H   0  0  0  0  0  0  0  0  0  0  0  0
  1  2  1  0
  2  3  1  0
  3  4  1  0
  4  5  1  0
  5  6  1  0
  6  7  2  0
  7  8  1  0
  8  9  2  0
  9 10  1  0
 10 11  1  0
 11 12  1  0
 12 13  2  0
 13 14  1  0
 14 15  2  0
 15 16  1  0
 16 17  1  0
 16 18  2  0
 18 19  1  0
 19 20  2  0
 19 21  1  0
 21 22  1  0
  9 23  1  0
 23 24  2  0
 24 25  1  0
 25 26  1  0
 25 27  1  0
 25 28  1  0
  5 29  1  0
 29 30  1  0
 30  2  1  0
 24  6  1  0
 21 10  2  0
 18 12  1  0
  1 31  1  0
  1 32  1  0
  1 33  1  0
  2 34  1  0
  3 35  1  0
  3 36  1  0
  4 37  1  0
  4 38  1  0
  7 39  1  0
  8 40  1  0
 13 41  1  0
 14 42  1  0
 15 43  1  0
 17 44  1  0
 22 45  1  0
 23 46  1  0
 29 47  1  0
 29 48  1  0
 30 49  1  0
 30 50  1  0
M  CHG  1   2   1
M  END
>  <meeko>  (9) 
{"is_sidechain": [false], "free_energy": -7.663, "intermolecular_energy": -9.59, "internal_energy": -0.394}

$$$$
