cand_014_out
     RDKit          3D

 35 37  0  0  0  0  0  0  0  0999 V2000
   70.5620   36.8570    1.4440 C   0  0  0  0  0  0  0  0  0  0  0  0
   70.3180   37.9590    0.4490 C   0  0  0  0  0  0  0  0  0  0  0  0
   69.0730   38.6050    0.4410 C   0  0  0  0  0  0  0  0  0  0  0  0
   68.8000   39.6250   -0.4740 C   0  0  0  0  0  0  0  0  0  0  0  0
   69.7640   40.0280   -1.4040 C   0  0  0  0  0  0  0  0  0  0  0  0
   69.4490   41.0960   -2.3750 C   0  0  0  0  0  0  0  0  0  0  0  0
   70.5020   41.9820   -2.5660 O   0  0  0  0  0  0  0  0  0  0  0  0
   70.3380   43.0250   -3.4420 C   0  0  0  0  0  0  0  0  0  0  0  0
   71.4130   43.9020   -3.5920 C   0  0  0  0  0  0  0  0  0  0  0  0
   71.3140   44.9820   -4.4710 C   0  0  0  0  0  0  0  0  0  0  0  0
   70.1400   45.1870   -5.1990 C   0  0  0  0  0  0  0  0  0  0  0  0
   69.0690   44.3110   -5.0480 C   0  0  0  0  0  0  0  0  0  0  0  0
   67.9510   44.5690   -5.7920 O   0  0  0  0  0  0  0  0  0  0  0  0
   69.1680   43.2300   -4.1690 C   0  0  0  0  0  0  0  0  0  0  0  0
   68.0660   42.2860   -3.9810 C   0  0  0  0  0  0  0  0  0  0  0  0
   67.0040   42.3920   -4.5910 O   0  0  0  0  0  0  0  0  0  0  0  0
   68.2690   41.1780   -3.0180 C   0  0  0  0  0  0  0  0  0  0  0  0
   67.2280   40.2830   -2.8570 O   0  0  0  0  0  0  0  0  0  0  0  0
   71.0000   39.3670   -1.4110 C   0  0  0  0  0  0  0  0  0  0  0  0
   71.2910   38.3310   -0.5020 C   0  0  0  0  0  0  0  0  0  0  0  0
   72.6550   37.6780   -0.5470 C   0  0  0  0  0  0  0  0  0  0  0  0
   72.6150   36.3260   -0.3780 F   0  0  0  0  0  0  0  0  0  0  0  0
   73.5010   38.1360    0.4180 F   0  0  0  0  0  0  0  0  0  0  0  0
   70.4732   37.2581    2.4644 H   0  0  0  0  0  0  0  0  0  0  0  0
   69.8187   36.0595    1.2975 H   0  0  0  0  0  0  0  0  0  0  0  0
   71.5725   36.4478    1.2975 H   0  0  0  0  0  0  0  0  0  0  0  0
   68.3011   38.3045    1.1649 H   0  0  0  0  0  0  0  0  0  0  0  0
   67.8160   40.1166   -0.4629 H   0  0  0  0  0  0  0  0  0  0  0  0
   72.3377   43.7424   -3.0180 H   0  0  0  0  0  0  0  0  0  0  0  0
   72.1619   45.6725   -4.5904 H   0  0  0  0  0  0  0  0  0  0  0  0
   70.0619   46.0390   -5.8903 H   0  0  0  0  0  0  0  0  0  0  0  0
   67.1320   44.7340   -5.3660 H   0  0  0  0  0  0  0  0  0  0  0  0
   67.1060   39.8480   -2.0360 H   0  0  0  0  0  0  0  0  0  0  0  0
   71.7627   39.6651   -2.1455 H   0  0  0  0  0  0  0  0  0  0  0  0
   73.0167   37.9394   -1.5524 H   0  0  0  0  0  0  0  0  0  0  0  0
  1  2  1  0
  2  3  2  0
  3  4  1  0
  4  5  2  0
  5  6  1  0
  6  7  1  0
  7  8  1  0
  8  9  2  0
  9 10  1  0
 10 11  2  0
 11 12  1  0
 12 13  1  0
 12 14  2  0
 14 15  1  0
 15 16  2  0
 15 17  1  0
 17 18  1  0
  5 19  1  0
 19 20  2  0
 20 21  1  0
 21 22  1  0
 21 23  1  0
 20  2  1  0
 17  6  2  0
 14  8  1  0
  1 24  1  0
  1 25  1  0
  1 26  1  0
  3 27  1  0
  4 28  1  0
  9 29  1  0
 10 30  1  0
 11 31  1  0
 13 32  1  0
 18 33  1  0
 19 34  1  0
 21 35  1  0
M  END
>  <meeko>  (1) 
{"is_sidechain": [false], "free_energy": -8.436, "intermolecular_energy": -9.916, "internal_energy": 0.143}

$$$$
cand_014_out
     RDKit          3D

 35 37  0  0  0  0  0  0  0  0999 V2000
   75.7280   43.7020   -5.2270 C   0  0  0  0  0  0  0  0  0  0  0  0
   74.8720   42.8240   -4.3570 C   0  0  0  0  0  0  0  0  0  0  0  0
   73.6350   42.3790   -4.8460 C   0  0  0  0  0  0  0  0  0  0  0  0
   72.8040   41.5710   -4.0670 C   0  0  0  0  0  0  0  0  0  0  0  0
   73.1860   41.1840   -2.7780 C   0  0  0  0  0  0  0  0  0  0  0  0
   72.2840   40.3440   -1.9640 C   0  0  0  0  0  0  0  0  0  0  0  0
   70.9530   40.7320   -2.0540 O   0  0  0  0  0  0  0  0  0  0  0  0
   70.0110   40.0340   -1.3420 C   0  0  0  0  0  0  0  0  0  0  0  0
   68.6880   40.4670   -1.4470 C   0  0  0  0  0  0  0  0  0  0  0  0
   67.6790   39.7990   -0.7500 C   0  0  0  0  0  0  0  0  0  0  0  0
   67.9920   38.6990    0.0510 C   0  0  0  0  0  0  0  0  0  0  0  0
   69.3110   38.2700    0.1540 C   0  0  0  0  0  0  0  0  0  0  0  0
   69.5470   37.1860    0.9550 O   0  0  0  0  0  0  0  0  0  0  0  0
   70.3210   38.9380   -0.5430 C   0  0  0  0  0  0  0  0  0  0  0  0
   71.7210   38.5180   -0.4610 C   0  0  0  0  0  0  0  0  0  0  0  0
   72.0750   37.5550    0.2150 O   0  0  0  0  0  0  0  0  0  0  0  0
   72.7160   39.3000   -1.2320 C   0  0  0  0  0  0  0  0  0  0  0  0
   74.0340   38.8880   -1.1600 O   0  0  0  0  0  0  0  0  0  0  0  0
   74.4120   41.6460   -2.2800 C   0  0  0  0  0  0  0  0  0  0  0  0
   75.2610   42.4680   -3.0480 C   0  0  0  0  0  0  0  0  0  0  0  0
   76.5820   42.9100   -2.4600 C   0  0  0  0  0  0  0  0  0  0  0  0
   76.9530   42.1940   -1.3600 F   0  0  0  0  0  0  0  0  0  0  0  0
   76.5830   44.2110   -2.0580 F   0  0  0  0  0  0  0  0  0  0  0  0
   76.3557   44.3458   -4.5933 H   0  0  0  0  0  0  0  0  0  0  0  0
   76.3704   43.0743   -5.8621 H   0  0  0  0  0  0  0  0  0  0  0  0
   75.0842   44.3283   -5.8621 H   0  0  0  0  0  0  0  0  0  0  0  0
   73.3150   42.6705   -5.8572 H   0  0  0  0  0  0  0  0  0  0  0  0
   71.8379   41.2350   -4.4716 H   0  0  0  0  0  0  0  0  0  0  0  0
   68.4406   41.3334   -2.0780 H   0  0  0  0  0  0  0  0  0  0  0  0
   66.6364   40.1398   -0.8321 H   0  0  0  0  0  0  0  0  0  0  0  0
   67.1969   38.1727    0.5995 H   0  0  0  0  0  0  0  0  0  0  0  0
   70.3730   37.0950    1.3890 H   0  0  0  0  0  0  0  0  0  0  0  0
   74.3190   38.1400   -1.6470 H   0  0  0  0  0  0  0  0  0  0  0  0
   74.7195   41.3596   -1.2634 H   0  0  0  0  0  0  0  0  0  0  0  0
   77.2833   42.7488   -3.2919 H   0  0  0  0  0  0  0  0  0  0  0  0
  1  2  1  0
  2  3  2  0
  3  4  1  0
  4  5  2  0
  5  6  1  0
  6  7  1  0
  7  8  1  0
  8  9  2  0
  9 10  1  0
 10 11  2  0
 11 12  1  0
 12 13  1  0
 12 14  2  0
 14 15  1  0
 15 16  2  0
 15 17  1  0
 17 18  1  0
  5 19  1  0
 19 20  2  0
 20 21  1  0
 21 22  1  0
 21 23  1  0
 20  2  1  0
 17  6  2  0
 14  8  1  0
  1 24  1  0
  1 25  1  0
  1 26  1  0
  3 27  1  0
  4 28  1  0
  9 29  1  0
 10 30  1  0
 11 31  1  0
 13 32  1  0
 18 33  1  0
 19 34  1  0
 21 35  1  0
M  END
>  <meeko>  (2) 
{"is_sidechain": [false], "free_energy": -8.41, "intermolecular_energy": -9.514, "internal_energy": -0.228}

$$$$
cand_014_out
     RDKit          3D

 35 37  0  0  0  0  0  0  0  0999 V2000
   72.2590   36.6900    0.2990 C   0  0  0  0  0  0  0  0  0  0  0  0
   72.0580   37.9280   -0.5320 C   0  0  0  0  0  0  0  0  0  0  0  0
   72.9860   38.2300   -1.5390 C   0  0  0  0  0  0  0  0  0  0  0  0
   72.8440   39.3750   -2.3260 C   0  0  0  0  0  0  0  0  0  0  0  0
   71.7700   40.2490   -2.1290 C   0  0  0  0  0  0  0  0  0  0  0  0
   71.6480   41.4650   -2.9600 C   0  0  0  0  0  0  0  0  0  0  0  0
   72.7030   42.3510   -2.7820 O   0  0  0  0  0  0  0  0  0  0  0  0
   72.7100   43.5240   -3.4940 C   0  0  0  0  0  0  0  0  0  0  0  0
   73.7780   44.3940   -3.2740 C   0  0  0  0  0  0  0  0  0  0  0  0
   73.8470   45.6020   -3.9690 C   0  0  0  0  0  0  0  0  0  0  0  0
   72.8480   45.9420   -4.8840 C   0  0  0  0  0  0  0  0  0  0  0  0
   71.7830   45.0730   -5.1020 C   0  0  0  0  0  0  0  0  0  0  0  0
   70.8410   45.4670   -6.0120 O   0  0  0  0  0  0  0  0  0  0  0  0
   71.7140   43.8630   -4.4070 C   0  0  0  0  0  0  0  0  0  0  0  0
   70.6120   42.9220   -4.6070 C   0  0  0  0  0  0  0  0  0  0  0  0
   69.7000   43.1440   -5.4000 O   0  0  0  0  0  0  0  0  0  0  0  0
   70.6280   41.6700   -3.8130 C   0  0  0  0  0  0  0  0  0  0  0  0
   69.5900   40.7800   -4.0190 O   0  0  0  0  0  0  0  0  0  0  0  0
   70.8550   39.9600   -1.1070 C   0  0  0  0  0  0  0  0  0  0  0  0
   70.9850   38.8140   -0.2980 C   0  0  0  0  0  0  0  0  0  0  0  0
   69.9480   38.5480    0.7690 C   0  0  0  0  0  0  0  0  0  0  0  0
   68.7980   39.2610    0.5980 F   0  0  0  0  0  0  0  0  0  0  0  0
   70.3770   38.8550    2.0240 F   0  0  0  0  0  0  0  0  0  0  0  0
   72.2162   36.9537    1.3661 H   0  0  0  0  0  0  0  0  0  0  0  0
   71.4674   35.9616    0.0693 H   0  0  0  0  0  0  0  0  0  0  0  0
   73.2404   36.2495    0.0693 H   0  0  0  0  0  0  0  0  0  0  0  0
   73.8377   37.5556   -1.7115 H   0  0  0  0  0  0  0  0  0  0  0  0
   73.5851   39.5918   -3.1095 H   0  0  0  0  0  0  0  0  0  0  0  0
   74.5652   44.1280   -2.5532 H   0  0  0  0  0  0  0  0  0  0  0  0
   74.6896   46.2877   -3.7960 H   0  0  0  0  0  0  0  0  0  0  0  0
   72.9029   46.8947   -5.4312 H   0  0  0  0  0  0  0  0  0  0  0  0
   70.1160   44.9060   -6.2090 H   0  0  0  0  0  0  0  0  0  0  0  0
   69.7620   39.9350   -4.3840 H   0  0  0  0  0  0  0  0  0  0  0  0
   70.0133   40.6462   -0.9321 H   0  0  0  0  0  0  0  0  0  0  0  0
   69.7635   37.4688    0.6632 H   0  0  0  0  0  0  0  0  0  0  0  0
  1  2  1  0
  2  3  2  0
  3  4  1  0
  4  5  2  0
  5  6  1  0
  6  7  1  0
  7  8  1  0
  8  9  2  0
  9 10  1  0
 10 11  2  0
 11 12  1  0
 12 13  1  0
 12 14  2  0
 14 15  1  0
 15 16  2  0
 15 17  1  0
 17 18  1  0
  5 19  1  0
 19 20  2  0
 20 21  1  0
 21 22  1  0
 21 23  1  0
 20  2  1  0
 17  6  2  0
 14  8  1  0
  1 24  1  0
  1 25  1  0
  1 26  1  0
  3 27  1  0
  4 28  1  0
  9 29  1  0
 10 30  1  0
 11 31  1  0
 13 32  1  0
 18 33  1  0
 19 34  1  0
 21 35  1  0
M  END
>  <meeko>  (3) 
{"is_sidechain": [false], "free_energy": -8.379, "intermolecular_energy": -9.257, "internal_energy": -0.448}

$$$$
cand_014_out
     RDKit          3D

 35 37  0  0  0  0  0  0  0  0999 V2000
   75.7690   45.2230   -3.3400 C   0  0  0  0  0  0  0  0  0  0  0  0
   74.5420   44.3760   -3.1340 C   0  0  0  0  0  0  0  0  0  0  0  0
   73.2890   44.8970   -3.4860 C   0  0  0  0  0  0  0  0  0  0  0  0
   72.1230   44.1500   -3.3010 C   0  0  0  0  0  0  0  0  0  0  0  0
   72.1790   42.8610   -2.7600 C   0  0  0  0  0  0  0  0  0  0  0  0
   70.9330   42.0940   -2.5560 C   0  0  0  0  0  0  0  0  0  0  0  0
   70.9710   41.2890   -1.4240 O   0  0  0  0  0  0  0  0  0  0  0  0
   69.8760   40.5210   -1.1200 C   0  0  0  0  0  0  0  0  0  0  0  0
   69.9630   39.7140    0.0140 C   0  0  0  0  0  0  0  0  0  0  0  0
   68.8820   38.9090    0.3810 C   0  0  0  0  0  0  0  0  0  0  0  0
   67.7150   38.9110   -0.3860 C   0  0  0  0  0  0  0  0  0  0  0  0
   67.6310   39.7170   -1.5170 C   0  0  0  0  0  0  0  0  0  0  0  0
   66.4600   39.6720   -2.2220 O   0  0  0  0  0  0  0  0  0  0  0  0
   68.7130   40.5220   -1.8850 C   0  0  0  0  0  0  0  0  0  0  0  0
   68.6660   41.3830   -3.0670 C   0  0  0  0  0  0  0  0  0  0  0  0
   67.6720   41.4480   -3.7880 O   0  0  0  0  0  0  0  0  0  0  0  0
   69.8690   42.1910   -3.3750 C   0  0  0  0  0  0  0  0  0  0  0  0
   69.8100   43.0120   -4.4850 O   0  0  0  0  0  0  0  0  0  0  0  0
   73.4290   42.3490   -2.3870 C   0  0  0  0  0  0  0  0  0  0  0  0
   74.6150   43.0900   -2.5590 C   0  0  0  0  0  0  0  0  0  0  0  0
   75.9330   42.4670   -2.1600 C   0  0  0  0  0  0  0  0  0  0  0  0
   75.9550   41.1100   -2.2920 F   0  0  0  0  0  0  0  0  0  0  0  0
   76.2690   42.7060   -0.8610 F   0  0  0  0  0  0  0  0  0  0  0  0
   76.1847   45.5100   -2.3629 H   0  0  0  0  0  0  0  0  0  0  0  0
   76.5197   44.6499   -3.9039 H   0  0  0  0  0  0  0  0  0  0  0  0
   75.4993   46.1282   -3.9039 H   0  0  0  0  0  0  0  0  0  0  0  0
   73.2230   45.9082   -3.9139 H   0  0  0  0  0  0  0  0  0  0  0  0
   71.1507   44.5798   -3.5837 H   0  0  0  0  0  0  0  0  0  0  0  0
   70.8818   39.7114    0.6188 H   0  0  0  0  0  0  0  0  0  0  0  0
   68.9501   38.2725    1.2756 H   0  0  0  0  0  0  0  0  0  0  0  0
   66.8641   38.2768   -0.0966 H   0  0  0  0  0  0  0  0  0  0  0  0
   66.4270   40.0050   -3.0980 H   0  0  0  0  0  0  0  0  0  0  0  0
   70.3030   42.7990   -5.2530 H   0  0  0  0  0  0  0  0  0  0  0  0
   73.4858   41.3419   -1.9483 H   0  0  0  0  0  0  0  0  0  0  0  0
   76.6442   42.9427   -2.8513 H   0  0  0  0  0  0  0  0  0  0  0  0
  1  2  1  0
  2  3  2  0
  3  4  1  0
  4  5  2  0
  5  6  1  0
  6  7  1  0
  7  8  1  0
  8  9  2  0
  9 10  1  0
 10 11  2  0
 11 12  1  0
 12 13  1  0
 12 14  2  0
 14 15  1  0
 15 16  2  0
 15 17  1  0
 17 18  1  0
  5 19  1  0
 19 20  2  0
 20 21  1  0
 21 22  1  0
 21 23  1  0
 20  2  1  0
 17  6  2  0
 14  8  1  0
  1 24  1  0
  1 25  1  0
  1 26  1  0
  3 27  1  0
  4 28  1  0
  9 29  1  0
 10 30  1  0
 11 31  1  0
 13 32  1  0
 18 33  1  0
 19 34  1  0
 21 35  1  0
M  END
>  <meeko>  (4) 
{"is_sidechain": [false], "free_energy": -8.374, "intermolecular_energy": -9.64, "internal_energy": -0.06}

$$$$
cand_014_out
     RDKit          3D

 35 37  0  0  0  0  0  0  0  0999 V2000
   70.7500   36.5180    1.0260 C   0  0  0  0  0  0  0  0  0  0  0  0
   71.3010   37.5920    0.1270 C   0  0  0  0  0  0  0  0  0  0  0  0
   72.6530   37.5410   -0.2440 C   0  0  0  0  0  0  0  0  0  0  0  0
   73.2070   38.5240   -1.0670 C   0  0  0  0  0  0  0  0  0  0  0  0
   72.4270   39.5820   -1.5440 C   0  0  0  0  0  0  0  0  0  0  0  0
   73.0370   40.6210   -2.3990 C   0  0  0  0  0  0  0  0  0  0  0  0
   74.1610   41.2020   -1.8260 O   0  0  0  0  0  0  0  0  0  0  0  0
   74.8220   42.1860   -2.5170 C   0  0  0  0  0  0  0  0  0  0  0  0
   75.9360   42.7560   -1.8990 C   0  0  0  0  0  0  0  0  0  0  0  0
   76.6550   43.7610   -2.5490 C   0  0  0  0  0  0  0  0  0  0  0  0
   76.2630   44.1950   -3.8170 C   0  0  0  0  0  0  0  0  0  0  0  0
   75.1520   43.6250   -4.4310 C   0  0  0  0  0  0  0  0  0  0  0  0
   74.8230   44.0960   -5.6730 O   0  0  0  0  0  0  0  0  0  0  0  0
   74.4310   42.6200   -3.7810 C   0  0  0  0  0  0  0  0  0  0  0  0
   73.2580   41.9940   -4.3920 C   0  0  0  0  0  0  0  0  0  0  0  0
   72.8540   42.3150   -5.5080 O   0  0  0  0  0  0  0  0  0  0  0  0
   72.5580   40.9440   -3.6150 C   0  0  0  0  0  0  0  0  0  0  0  0
   71.4590   40.3490   -4.2050 O   0  0  0  0  0  0  0  0  0  0  0  0
   71.0810   39.6450   -1.1550 C   0  0  0  0  0  0  0  0  0  0  0  0
   70.5060   38.6680   -0.3190 C   0  0  0  0  0  0  0  0  0  0  0  0
   69.0410   38.7820    0.0400 C   0  0  0  0  0  0  0  0  0  0  0  0
   68.3090   39.4760   -0.8770 F   0  0  0  0  0  0  0  0  0  0  0  0
   68.8270   39.4170    1.2260 F   0  0  0  0  0  0  0  0  0  0  0  0
   70.8985   36.8075    2.0768 H   0  0  0  0  0  0  0  0  0  0  0  0
   69.6753   36.3908    0.8291 H   0  0  0  0  0  0  0  0  0  0  0  0
   71.2735   35.5708    0.8291 H   0  0  0  0  0  0  0  0  0  0  0  0
   73.2847   36.7164    0.1179 H   0  0  0  0  0  0  0  0  0  0  0  0
   74.2701   38.4652   -1.3434 H   0  0  0  0  0  0  0  0  0  0  0  0
   76.2472   42.4139   -0.9010 H   0  0  0  0  0  0  0  0  0  0  0  0
   77.5319   44.2117   -2.0613 H   0  0  0  0  0  0  0  0  0  0  0  0
   76.8311   44.9855   -4.3292 H   0  0  0  0  0  0  0  0  0  0  0  0
   75.3160   43.8240   -6.4230 H   0  0  0  0  0  0  0  0  0  0  0  0
   71.0810   40.7230   -4.9760 H   0  0  0  0  0  0  0  0  0  0  0  0
   70.4584   40.4787   -1.5119 H   0  0  0  0  0  0  0  0  0  0  0  0
   68.7204   37.7308    0.0860 H   0  0  0  0  0  0  0  0  0  0  0  0
  1  2  1  0
  2  3  2  0
  3  4  1  0
  4  5  2  0
  5  6  1  0
  6  7  1  0
  7  8  1  0
  8  9  2  0
  9 10  1  0
 10 11  2  0
 11 12  1  0
 12 13  1  0
 12 14  2  0
 14 15  1  0
 15 16  2  0
 15 17  1  0
 17 18  1  0
  5 19  1  0
 19 20  2  0
 20 21  1  0
 21 22  1  0
 21 23  1  0
 20  2  1  0
 17  6  2  0
 14  8  1  0
  1 24  1  0
  1 25  1  0
  1 26  1  0
  3 27  1  0
  4 28  1  0
  9 29  1  0
 10 30  1  0
 11 31  1  0
 13 32  1  0
 18 33  1  0
 19 34  1  0
 21 35  1  0
M  END
>  <meeko>  (5) 
{"is_sidechain": [false], "free_energy": -8.268, "intermolecular_energy": -9.207, "internal_energy": -0.369}

$$$$
cand_014_out
     RDKit          3D

 35 37  0  0  0  0  0  0  0  0999 V2000
   73.5980   45.7320   -5.7140 C   0  0  0  0  0  0  0  0  0  0  0  0
   73.2820   44.5220   -4.8770 C   0  0  0  0  0  0  0  0  0  0  0  0
   72.6780   44.7020   -3.6240 C   0  0  0  0  0  0  0  0  0  0  0  0
   72.3780   43.6070   -2.8090 C   0  0  0  0  0  0  0  0  0  0  0  0
   72.6720   42.3040   -3.2240 C   0  0  0  0  0  0  0  0  0  0  0  0
   72.3630   41.1620   -2.3400 C   0  0  0  0  0  0  0  0  0  0  0  0
   71.0130   41.0670   -2.0290 O   0  0  0  0  0  0  0  0  0  0  0  0
   70.5920   40.0490   -1.2110 C   0  0  0  0  0  0  0  0  0  0  0  0
   69.2310   40.0000   -0.9090 C   0  0  0  0  0  0  0  0  0  0  0  0
   68.7360   38.9870   -0.0850 C   0  0  0  0  0  0  0  0  0  0  0  0
   69.6020   38.0240    0.4380 C   0  0  0  0  0  0  0  0  0  0  0  0
   70.9590   38.0760    0.1360 C   0  0  0  0  0  0  0  0  0  0  0  0
   71.7500   37.1010    0.6800 O   0  0  0  0  0  0  0  0  0  0  0  0
   71.4540   39.0890   -0.6890 C   0  0  0  0  0  0  0  0  0  0  0  0
   72.8740   39.1790   -1.0310 C   0  0  0  0  0  0  0  0  0  0  0  0
   73.6980   38.3650   -0.6180 O   0  0  0  0  0  0  0  0  0  0  0  0
   73.2990   40.2970   -1.9060 C   0  0  0  0  0  0  0  0  0  0  0  0
   74.6400   40.3660   -2.2350 O   0  0  0  0  0  0  0  0  0  0  0  0
   73.2970   42.1270   -4.4670 C   0  0  0  0  0  0  0  0  0  0  0  0
   73.6140   43.2180   -5.2990 C   0  0  0  0  0  0  0  0  0  0  0  0
   74.2630   42.9540   -6.6390 C   0  0  0  0  0  0  0  0  0  0  0  0
   73.4090   42.4230   -7.5610 F   0  0  0  0  0  0  0  0  0  0  0  0
   75.3040   42.0780   -6.5680 F   0  0  0  0  0  0  0  0  0  0  0  0
   73.8208   46.5849   -5.0561 H   0  0  0  0  0  0  0  0  0  0  0  0
   74.4711   45.5208   -6.3489 H   0  0  0  0  0  0  0  0  0  0  0  0
   72.7331   45.9747   -6.3489 H   0  0  0  0  0  0  0  0  0  0  0  0
   72.4373   45.7182   -3.2783 H   0  0  0  0  0  0  0  0  0  0  0  0
   71.9051   43.7718   -1.8296 H   0  0  0  0  0  0  0  0  0  0  0  0
   68.5483   40.7586   -1.3195 H   0  0  0  0  0  0  0  0  0  0  0  0
   67.6627   38.9474    0.1525 H   0  0  0  0  0  0  0  0  0  0  0  0
   69.2119   37.2263    1.0872 H   0  0  0  0  0  0  0  0  0  0  0  0
   71.9660   37.1280    1.5920 H   0  0  0  0  0  0  0  0  0  0  0  0
   75.0140   39.7320   -2.8150 H   0  0  0  0  0  0  0  0  0  0  0  0
   73.5462   41.1089   -4.8008 H   0  0  0  0  0  0  0  0  0  0  0  0
   74.6025   43.9545   -6.9452 H   0  0  0  0  0  0  0  0  0  0  0  0
  1  2  1  0
  2  3  2  0
  3  4  1  0
  4  5  2  0
  5  6  1  0
  6  7  1  0
  7  8  1  0
  8  9  2  0
  9 10  1  0
 10 11  2  0
 11 12  1  0
 12 13  1  0
 12 14  2  0
 14 15  1  0
 15 16  2  0
 15 17  1  0
 17 18  1  0
  5 19  1  0
 19 20  2  0
 20 21  1  0
 21 22  1  0
 21 23  1  0
 20  2  1  0
 17  6  2  0
 14  8  1  0
  1 24  1  0
  1 25  1  0
  1 26  1  0
  3 27  1  0
  4 28  1  0
  9 29  1  0
 10 30  1  0
 11 31  1  0
 13 32  1  0
 18 33  1  0
 19 34  1  0
 21 35  1  0
M  END
>  <meeko>  (6) 
{"is_sidechain": [false], "free_energy": -8.261, "intermolecular_energy": -9.212, "internal_energy": -0.355}

$$$$
cand_014_out
     RDKit          3D

 35 37  0  0  0  0  0  0  0  0999 V2000
   77.4890   43.5380   -4.3300 C   0  0  0  0  0  0  0  0  0  0  0  0
   76.3030   42.8350   -3.7280 C   0  0  0  0  0  0  0  0  0  0  0  0
   76.2680   42.6240   -2.3420 C   0  0  0  0  0  0  0  0  0  0  0  0
   75.1910   41.9650   -1.7440 C   0  0  0  0  0  0  0  0  0  0  0  0
   74.1190   41.5020   -2.5140 C   0  0  0  0  0  0  0  0  0  0  0  0
   72.9980   40.7920   -1.8640 C   0  0  0  0  0  0  0  0  0  0  0  0
   73.3710   39.5670   -1.3250 O   0  0  0  0  0  0  0  0  0  0  0  0
   72.4220   38.8040   -0.6950 C   0  0  0  0  0  0  0  0  0  0  0  0
   72.8340   37.5730   -0.1840 C   0  0  0  0  0  0  0  0  0  0  0  0
   71.9180   36.7490    0.4720 C   0  0  0  0  0  0  0  0  0  0  0  0
   70.5900   37.1550    0.6180 C   0  0  0  0  0  0  0  0  0  0  0  0
   70.1800   38.3830    0.1070 C   0  0  0  0  0  0  0  0  0  0  0  0
   68.8660   38.7190    0.2850 O   0  0  0  0  0  0  0  0  0  0  0  0
   71.0970   39.2080   -0.5500 C   0  0  0  0  0  0  0  0  0  0  0  0
   70.7080   40.5060   -1.1010 C   0  0  0  0  0  0  0  0  0  0  0  0
   69.5610   40.9380   -1.0070 O   0  0  0  0  0  0  0  0  0  0  0  0
   71.7540   41.3010   -1.7870 C   0  0  0  0  0  0  0  0  0  0  0  0
   71.3810   42.5320   -2.2930 O   0  0  0  0  0  0  0  0  0  0  0  0
   74.1640   41.6940   -3.9020 C   0  0  0  0  0  0  0  0  0  0  0  0
   75.2450   42.3480   -4.5240 C   0  0  0  0  0  0  0  0  0  0  0  0
   75.2170   42.5450   -6.0230 C   0  0  0  0  0  0  0  0  0  0  0  0
   74.0690   42.1010   -6.6080 F   0  0  0  0  0  0  0  0  0  0  0  0
   76.2250   41.8940   -6.6690 F   0  0  0  0  0  0  0  0  0  0  0  0
   78.1351   43.9209   -3.5263 H   0  0  0  0  0  0  0  0  0  0  0  0
   78.0575   42.8309   -4.9519 H   0  0  0  0  0  0  0  0  0  0  0  0
   77.1416   44.3761   -4.9519 H   0  0  0  0  0  0  0  0  0  0  0  0
   77.0996   42.9821   -1.7174 H   0  0  0  0  0  0  0  0  0  0  0  0
   75.1860   41.8085   -0.6552 H   0  0  0  0  0  0  0  0  0  0  0  0
   73.8799   37.2520   -0.2980 H   0  0  0  0  0  0  0  0  0  0  0  0
   72.2428   35.7782    0.8746 H   0  0  0  0  0  0  0  0  0  0  0  0
   69.8691   36.5054    1.1360 H   0  0  0  0  0  0  0  0  0  0  0  0
   68.2320   38.0520    0.4600 H   0  0  0  0  0  0  0  0  0  0  0  0
   71.0790   42.6040   -3.1770 H   0  0  0  0  0  0  0  0  0  0  0  0
   73.3334   41.3242   -4.5212 H   0  0  0  0  0  0  0  0  0  0  0  0
   75.3154   43.6358   -6.1258 H   0  0  0  0  0  0  0  0  0  0  0  0
  1  2  1  0
  2  3  2  0
  3  4  1  0
  4  5  2  0
  5  6  1  0
  6  7  1  0
  7  8  1  0
  8  9  2  0
  9 10  1  0
 10 11  2  0
 11 12  1  0
 12 13  1  0
 12 14  2  0
 14 15  1  0
 15 16  2  0
 15 17  1  0
 17 18  1  0
  5 19  1  0
 19 20  2  0
 20 21  1  0
 21 22  1  0
 21 23  1  0
 20  2  1  0
 17  6  2  0
 14  8  1  0
  1 24  1  0
  1 25  1  0
  1 26  1  0
  3 27  1  0
  4 28  1  0
  9 29  1  0
 10 30  1  0
 11 31  1  0
 13 32  1  0
 18 33  1  0
 19 34  1  0
 21 35  1  0
M  END
>  <meeko>  (7) 
{"is_sidechain": [false], "free_energy": -8.236, "intermolecular_energy": -9.133, "internal_energy": -0.405}

$$$$
cand_014_out
     RDKit          3D

 35 37  0  0  0  0  0  0  0  0999 V2000
   70.8710   36.8830    0.8840 C   0  0  0  0  0  0  0  0  0  0  0  0
   70.3310   38.0620    0.1210 C   0  0  0  0  0  0  0  0  0  0  0  0
   68.9600   38.3500    0.1950 C   0  0  0  0  0  0  0  0  0  0  0  0
   68.4150   39.4280   -0.5060 C   0  0  0  0  0  0  0  0  0  0  0  0
   69.2240   40.2490   -1.2980 C   0  0  0  0  0  0  0  0  0  0  0  0
   68.6240   41.3730   -2.0460 C   0  0  0  0  0  0  0  0  0  0  0  0
   67.7350   42.1190   -1.2830 O   0  0  0  0  0  0  0  0  0  0  0  0
   67.1050   43.1920   -1.8600 C   0  0  0  0  0  0  0  0  0  0  0  0
   66.2060   43.9030   -1.0640 C   0  0  0  0  0  0  0  0  0  0  0  0
   65.5340   45.0080   -1.5900 C   0  0  0  0  0  0  0  0  0  0  0  0
   65.7590   45.4030   -2.9100 C   0  0  0  0  0  0  0  0  0  0  0  0
   66.6560   44.6910   -3.7020 C   0  0  0  0  0  0  0  0  0  0  0  0
   66.8310   45.1320   -4.9860 O   0  0  0  0  0  0  0  0  0  0  0  0
   67.3290   43.5860   -3.1770 C   0  0  0  0  0  0  0  0  0  0  0  0
   68.2800   42.8110   -3.9750 C   0  0  0  0  0  0  0  0  0  0  0  0
   68.5390   43.0990   -5.1420 O   0  0  0  0  0  0  0  0  0  0  0  0
   68.9340   41.6500   -3.3270 C   0  0  0  0  0  0  0  0  0  0  0  0
   69.8400   40.9320   -4.0840 O   0  0  0  0  0  0  0  0  0  0  0  0
   70.5900   39.9480   -1.3910 C   0  0  0  0  0  0  0  0  0  0  0  0
   71.1570   38.8610   -0.6970 C   0  0  0  0  0  0  0  0  0  0  0  0
   72.6430   38.6080   -0.8190 C   0  0  0  0  0  0  0  0  0  0  0  0
   73.3920   39.7470   -0.7850 F   0  0  0  0  0  0  0  0  0  0  0  0
   72.9880   37.9860   -1.9810 F   0  0  0  0  0  0  0  0  0  0  0  0
   70.7836   37.0738    1.9638 H   0  0  0  0  0  0  0  0  0  0  0  0
   70.2955   35.9826    0.6230 H   0  0  0  0  0  0  0  0  0  0  0  0
   71.9287   36.7306    0.6230 H   0  0  0  0  0  0  0  0  0  0  0  0
   68.3055   37.7183    0.8135 H   0  0  0  0  0  0  0  0  0  0  0  0
   67.3368   39.6337   -0.4343 H   0  0  0  0  0  0  0  0  0  0  0  0
   66.0271   43.5933   -0.0238 H   0  0  0  0  0  0  0  0  0  0  0  0
   64.8254   45.5688   -0.9628 H   0  0  0  0  0  0  0  0  0  0  0  0
   65.2293   46.2741   -3.3231 H   0  0  0  0  0  0  0  0  0  0  0  0
   66.4370   44.6680   -5.6980 H   0  0  0  0  0  0  0  0  0  0  0  0
   70.4570   40.3650   -3.6650 H   0  0  0  0  0  0  0  0  0  0  0  0
   71.2356   40.5766   -2.0219 H   0  0  0  0  0  0  0  0  0  0  0  0
   72.8531   37.9710    0.0528 H   0  0  0  0  0  0  0  0  0  0  0  0
  1  2  1  0
  2  3  2  0
  3  4  1  0
  4  5  2  0
  5  6  1  0
  6  7  1  0
  7  8  1  0
  8  9  2  0
  9 10  1  0
 10 11  2  0
 11 12  1  0
 12 13  1  0
 12 14  2  0
 14 15  1  0
 15 16  2  0
 15 17  1  0
 17 18  1  0
  5 19  1  0
 19 20  2  0
 20 21  1  0
 21 22  1  0
 21 23  1  0
 20  2  1  0
 17  6  2  0
 14  8  1  0
  1 24  1  0
  1 25  1  0
  1 26  1  0
  3 27  1  0
  4 28  1  0
  9 29  1  0
 10 30  1  0
 11 31  1  0
 13 32  1  0
 18 33  1  0
 19 34  1  0
 21 35  1  0
M  END
>  <meeko>  (8) 
{"is_sidechain": [false], "free_energy": -8.229, "intermolecular_energy": -9.338, "internal_energy": -0.192}

$$$$
cand_014_out
     RDKit          3D

 35 37  0  0  0  0  0  0  0  0999 V2000
   75.7710   43.6750   -5.4100 C   0  0  0  0  0  0  0  0  0  0  0  0
   74.8550   42.8580   -4.5390 C   0  0  0  0  0  0  0  0  0  0  0  0
   73.6360   42.4090   -5.0670 C   0  0  0  0  0  0  0  0  0  0  0  0
   72.7520   41.6580   -4.2890 C   0  0  0  0  0  0  0  0  0  0  0  0
   73.0620   41.3340   -2.9640 C   0  0  0  0  0  0  0  0  0  0  0  0
   72.1050   40.5530   -2.1530 C   0  0  0  0  0  0  0  0  0  0  0  0
   72.6890   39.4570   -1.5300 O   0  0  0  0  0  0  0  0  0  0  0  0
   71.9080   38.6460   -0.7480 C   0  0  0  0  0  0  0  0  0  0  0  0
   72.5290   37.5460   -0.1550 C   0  0  0  0  0  0  0  0  0  0  0  0
   71.7910   36.6820    0.6560 C   0  0  0  0  0  0  0  0  0  0  0  0
   70.4320   36.9160    0.8740 C   0  0  0  0  0  0  0  0  0  0  0  0
   69.8140   38.0140    0.2820 C   0  0  0  0  0  0  0  0  0  0  0  0
   68.4820   38.1850    0.5390 O   0  0  0  0  0  0  0  0  0  0  0  0
   70.5520   38.8790   -0.5290 C   0  0  0  0  0  0  0  0  0  0  0  0
   69.9410   40.0430   -1.1710 C   0  0  0  0  0  0  0  0  0  0  0  0
   68.7530   40.3230   -1.0200 O   0  0  0  0  0  0  0  0  0  0  0  0
   70.8090   40.8930   -2.0200 C   0  0  0  0  0  0  0  0  0  0  0  0
   70.2270   41.9980   -2.6100 O   0  0  0  0  0  0  0  0  0  0  0  0
   74.2710   41.8020   -2.4290 C   0  0  0  0  0  0  0  0  0  0  0  0
   75.1720   42.5670   -3.1950 C   0  0  0  0  0  0  0  0  0  0  0  0
   76.4700   43.0180   -2.5650 C   0  0  0  0  0  0  0  0  0  0  0  0
   76.8060   42.3110   -1.4480 F   0  0  0  0  0  0  0  0  0  0  0  0
   76.4530   44.3220   -2.1730 F   0  0  0  0  0  0  0  0  0  0  0  0
   76.4421   44.2735   -4.7764 H   0  0  0  0  0  0  0  0  0  0  0  0
   76.3680   43.0040   -6.0451 H   0  0  0  0  0  0  0  0  0  0  0  0
   75.1724   44.3446   -6.0451 H   0  0  0  0  0  0  0  0  0  0  0  0
   73.3726   42.6513   -6.1071 H   0  0  0  0  0  0  0  0  0  0  0  0
   71.8006   41.3172   -4.7234 H   0  0  0  0  0  0  0  0  0  0  0  0
   73.5995   37.3598   -0.3265 H   0  0  0  0  0  0  0  0  0  0  0  0
   72.2810   35.8155    1.1240 H   0  0  0  0  0  0  0  0  0  0  0  0
   69.8508   36.2342    1.5122 H   0  0  0  0  0  0  0  0  0  0  0  0
   68.1970   38.4190    1.4020 H   0  0  0  0  0  0  0  0  0  0  0  0
   70.7400   42.7630   -2.7840 H   0  0  0  0  0  0  0  0  0  0  0  0
   74.5220   41.5656   -1.3844 H   0  0  0  0  0  0  0  0  0  0  0  0
   77.2000   42.8534   -3.3712 H   0  0  0  0  0  0  0  0  0  0  0  0
  1  2  1  0
  2  3  2  0
  3  4  1  0
  4  5  2  0
  5  6  1  0
  6  7  1  0
  7  8  1  0
  8  9  2  0
  9 10  1  0
 10 11  2  0
 11 12  1  0
 12 13  1  0
 12 14  2  0
 14 15  1  0
 15 16  2  0
 15 17  1  0
 17 18  1  0
  5 19  1  0
 19 20  2  0
 20 21  1  0
 21 22  1  0
 21 23  1  0
 20  2  1  0
 17  6  2  0
 14  8  1  0
  1 24  1  0
  1 25  1  0
  1 26  1  0
  3 27  1  0
  4 28  1  0
  9 29  1  0
 10 30  1  0
 11 31  1  0
 13 32  1  0
 18 33  1  0
 19 34  1  0
 21 35  1  0
M  END
>  <meeko>  (9) 
{"is_sidechain": [false], "free_energy": -8.196, "intermolecular_energy": -9.207, "internal_energy": -0.284}

$$$$
