cand_055_out
     RDKit          3D

 41 43  0  0  0  0  0  0  0  0999 V2000
   70.6460   37.0590    1.2640 C   0  0  0  0  0  0  0  0  0  0  0  0
   70.6880   38.5760    1.1710 C   0  0  0  0  0  0  0  0  0  0  0  0
   70.0400   39.0730   -0.1220 C   0  0  0  0  0  0  0  0  0  0  0  0
   71.0490   39.7250   -1.0420 C   0  0  0  0  0  0  0  0  0  0  0  0
   72.0030   38.9090   -1.6710 C   0  0  0  0  0  0  0  0  0  0  0  0
   72.9660   39.4530   -2.5240 C   0  0  0  0  0  0  0  0  0  0  0  0
   73.0000   40.8280   -2.7750 C   0  0  0  0  0  0  0  0  0  0  0  0
   74.0240   41.4330   -3.6540 C   0  0  0  0  0  0  0  0  0  0  0  0
   73.5150   41.8200   -4.8890 O   0  0  0  0  0  0  0  0  0  0  0  0
   74.3580   42.3980   -5.8030 C   0  0  0  0  0  0  0  0  0  0  0  0
   73.8010   42.7840   -7.0230 C   0  0  0  0  0  0  0  0  0  0  0  0
   74.6050   43.3760   -7.9990 C   0  0  0  0  0  0  0  0  0  0  0  0
   75.9650   43.5810   -7.7560 C   0  0  0  0  0  0  0  0  0  0  0  0
   76.5170   43.1960   -6.5370 C   0  0  0  0  0  0  0  0  0  0  0  0
   77.8550   43.4240   -6.3660 O   0  0  0  0  0  0  0  0  0  0  0  0
   75.7120   42.6030   -5.5610 C   0  0  0  0  0  0  0  0  0  0  0  0
   76.2530   42.1830   -4.2670 C   0  0  0  0  0  0  0  0  0  0  0  0
   77.4400   42.3240   -3.9820 O   0  0  0  0  0  0  0  0  0  0  0  0
   75.3140   41.5720   -3.2980 C   0  0  0  0  0  0  0  0  0  0  0  0
   75.8390   41.1670   -2.0840 O   0  0  0  0  0  0  0  0  0  0  0  0
   72.0570   41.6460   -2.1350 C   0  0  0  0  0  0  0  0  0  0  0  0
   71.0840   41.1150   -1.2670 C   0  0  0  0  0  0  0  0  0  0  0  0
   70.0930   42.0500   -0.6290 C   0  0  0  0  0  0  0  0  0  0  0  0
   70.6376   36.7566    2.3216 H   0  0  0  0  0  0  0  0  0  0  0  0
   69.7372   36.6863    0.7689 H   0  0  0  0  0  0  0  0  0  0  0  0
   71.5328   36.6366    0.7689 H   0  0  0  0  0  0  0  0  0  0  0  0
   70.1478   39.0024    2.0291 H   0  0  0  0  0  0  0  0  0  0  0  0
   71.7409   38.8945    1.1757 H   0  0  0  0  0  0  0  0  0  0  0  0
   69.5835   38.2184   -0.6428 H   0  0  0  0  0  0  0  0  0  0  0  0
   69.2825   39.8254    0.1426 H   0  0  0  0  0  0  0  0  0  0  0  0
   71.9918   37.8242   -1.4891 H   0  0  0  0  0  0  0  0  0  0  0  0
   73.7047   38.7934   -3.0028 H   0  0  0  0  0  0  0  0  0  0  0  0
   72.7301   42.6221   -7.2154 H   0  0  0  0  0  0  0  0  0  0  0  0
   74.1667   43.6813   -8.9606 H   0  0  0  0  0  0  0  0  0  0  0  0
   76.5986   44.0456   -8.5259 H   0  0  0  0  0  0  0  0  0  0  0  0
   78.2970   43.0800   -5.6140 H   0  0  0  0  0  0  0  0  0  0  0  0
   75.4510   40.4510   -1.6220 H   0  0  0  0  0  0  0  0  0  0  0  0
   72.0784   42.7308   -2.3161 H   0  0  0  0  0  0  0  0  0  0  0  0
   70.1714   41.9761    0.4657 H   0  0  0  0  0  0  0  0  0  0  0  0
   70.3079   43.0821   -0.9431 H   0  0  0  0  0  0  0  0  0  0  0  0
   69.0752   41.7755   -0.9431 H   0  0  0  0  0  0  0  0  0  0  0  0
  1  2  1  0
  2  3  1  0
  3  4  1  0
  4  5  2  0
  5  6  1  0
  6  7  2  0
  7  8  1  0
  8  9  1  0
  9 10  1  0
 10 11  2  0
 11 12  1  0
 12 13  2  0
 13 14  1  0
 14 15  1  0
 14 16  2  0
 16 17  1  0
 17 18  2  0
 17 19  1  0
 19 20  1  0
  7 21  1  0
 21 22  2  0
 22 23  1  0
 22  4  1  0
 19  8  2  0
 16 10  1  0
  1 24  1  0
  1 25  1  0
  1 26  1  0
  2 27  1  0
  2 28  1  0
  3 29  1  0
  3 30  1  0
  5 31  1  0
  6 32  1  0
 11 33  1  0
 12 34  1  0
 13 35  1  0
 15 36  1  0
 20 37  1  0
 21 38  1  0
 23 39  1  0
 23 40  1  0
 23 41  1  0
M  END
>  <meeko>  (1) 
{"is_sidechain": [false], "free_energy": -7.533, "intermolecular_energy": -9.294, "internal_energy": -0.554}

$$$$
cand_055_out
     RDKit          3D

 41 43  0  0  0  0  0  0  0  0999 V2000
   76.4960   42.3440   -6.5070 C   0  0  0  0  0  0  0  0  0  0  0  0
   75.3770   43.2270   -7.0340 C   0  0  0  0  0  0  0  0  0  0  0  0
   74.7200   44.0280   -5.9080 C   0  0  0  0  0  0  0  0  0  0  0  0
   73.9770   43.1330   -4.9410 C   0  0  0  0  0  0  0  0  0  0  0  0
   72.9370   42.3320   -5.4380 C   0  0  0  0  0  0  0  0  0  0  0  0
   72.2080   41.4920   -4.5930 C   0  0  0  0  0  0  0  0  0  0  0  0
   72.5010   41.4260   -3.2280 C   0  0  0  0  0  0  0  0  0  0  0  0
   71.7300   40.5640   -2.3060 C   0  0  0  0  0  0  0  0  0  0  0  0
   72.4860   39.5200   -1.7830 O   0  0  0  0  0  0  0  0  0  0  0  0
   71.8930   38.6430   -0.9130 C   0  0  0  0  0  0  0  0  0  0  0  0
   72.6920   37.6200   -0.4010 C   0  0  0  0  0  0  0  0  0  0  0  0
   72.1500   36.6910    0.4900 C   0  0  0  0  0  0  0  0  0  0  0  0
   70.8080   36.7840    0.8680 C   0  0  0  0  0  0  0  0  0  0  0  0
   70.0130   37.8070    0.3560 C   0  0  0  0  0  0  0  0  0  0  0  0
   68.7090   37.8390    0.7670 O   0  0  0  0  0  0  0  0  0  0  0  0
   70.5570   38.7360   -0.5350 C   0  0  0  0  0  0  0  0  0  0  0  0
   69.7560   39.8250   -1.0960 C   0  0  0  0  0  0  0  0  0  0  0  0
   68.5680   39.9700   -0.8160 O   0  0  0  0  0  0  0  0  0  0  0  0
   70.4290   40.7620   -2.0260 C   0  0  0  0  0  0  0  0  0  0  0  0
   69.6580   41.7790   -2.5590 O   0  0  0  0  0  0  0  0  0  0  0  0
   73.5310   42.2380   -2.7280 C   0  0  0  0  0  0  0  0  0  0  0  0
   74.2710   43.0950   -3.5640 C   0  0  0  0  0  0  0  0  0  0  0  0
   75.3720   43.9240   -2.9620 C   0  0  0  0  0  0  0  0  0  0  0  0
   76.4837   42.3537   -5.4071 H   0  0  0  0  0  0  0  0  0  0  0  0
   76.3508   41.3145   -6.8662 H   0  0  0  0  0  0  0  0  0  0  0  0
   77.4635   42.7246   -6.8662 H   0  0  0  0  0  0  0  0  0  0  0  0
   75.7917   43.9258   -7.7754 H   0  0  0  0  0  0  0  0  0  0  0  0
   74.6126   42.5812   -7.4908 H   0  0  0  0  0  0  0  0  0  0  0  0
   75.5000   44.5756   -5.3587 H   0  0  0  0  0  0  0  0  0  0  0  0
   73.9942   44.7203   -6.3596 H   0  0  0  0  0  0  0  0  0  0  0  0
   72.6922   42.3663   -6.5099 H   0  0  0  0  0  0  0  0  0  0  0  0
   71.3953   40.8764   -5.0059 H   0  0  0  0  0  0  0  0  0  0  0  0
   73.7482   37.5453   -0.6990 H   0  0  0  0  0  0  0  0  0  0  0  0
   72.7802   35.8853    0.8946 H   0  0  0  0  0  0  0  0  0  0  0  0
   70.3803   36.0512    1.5681 H   0  0  0  0  0  0  0  0  0  0  0  0
   68.3300   37.0890    1.1820 H   0  0  0  0  0  0  0  0  0  0  0  0
   68.9510   42.1410   -2.0630 H   0  0  0  0  0  0  0  0  0  0  0  0
   73.7661   42.2036   -1.6540 H   0  0  0  0  0  0  0  0  0  0  0  0
   75.3088   43.8764   -1.8648 H   0  0  0  0  0  0  0  0  0  0  0  0
   76.3465   43.5335   -3.2904 H   0  0  0  0  0  0  0  0  0  0  0  0
   75.2660   44.9685   -3.2904 H   0  0  0  0  0  0  0  0  0  0  0  0
  1  2  1  0
  2  3  1  0
  3  4  1  0
  4  5  2  0
  5  6  1  0
  6  7  2  0
  7  8  1  0
  8  9  1  0
  9 10  1  0
 10 11  2  0
 11 12  1  0
 12 13  2  0
 13 14  1  0
 14 15  1  0
 14 16  2  0
 16 17  1  0
 17 18  2  0
 17 19  1  0
 19 20  1  0
  7 21  1  0
 21 22  2  0
 22 23  1  0
 22  4  1  0
 19  8  2  0
 16 10  1  0
  1 24  1  0
  1 25  1  0
  1 26  1  0
  2 27  1  0
  2 28  1  0
  3 29  1  0
  3 30  1  0
  5 31  1  0
  6 32  1  0
 11 33  1  0
 12 34  1  0
 13 35  1  0
 15 36  1  0
 20 37  1  0
 21 38  1  0
 23 39  1  0
 23 40  1  0
 23 41  1  0
M  END
>  <meeko>  (2) 
{"is_sidechain": [false], "free_energy": -7.504, "intermolecular_energy": -9.179, "internal_energy": -0.633}

$$$$
cand_055_out
     RDKit          3D

 41 43  0  0  0  0  0  0  0  0999 V2000
   76.9840   42.0840   -6.1980 C   0  0  0  0  0  0  0  0  0  0  0  0
   76.0640   43.2290   -6.5920 C   0  0  0  0  0  0  0  0  0  0  0  0
   75.5190   43.9550   -5.3610 C   0  0  0  0  0  0  0  0  0  0  0  0
   74.6930   43.0380   -4.4860 C   0  0  0  0  0  0  0  0  0  0  0  0
   73.5650   42.4180   -5.0480 C   0  0  0  0  0  0  0  0  0  0  0  0
   72.7580   41.5680   -4.2880 C   0  0  0  0  0  0  0  0  0  0  0  0
   73.0580   41.3090   -2.9480 C   0  0  0  0  0  0  0  0  0  0  0  0
   72.2070   40.4330   -2.1140 C   0  0  0  0  0  0  0  0  0  0  0  0
   70.8710   40.8170   -2.1170 O   0  0  0  0  0  0  0  0  0  0  0  0
   69.9700   40.0880   -1.3830 C   0  0  0  0  0  0  0  0  0  0  0  0
   68.6370   40.5000   -1.4260 C   0  0  0  0  0  0  0  0  0  0  0  0
   67.6680   39.8040   -0.7010 C   0  0  0  0  0  0  0  0  0  0  0  0
   68.0320   38.6960    0.0690 C   0  0  0  0  0  0  0  0  0  0  0  0
   69.3630   38.2870    0.1090 C   0  0  0  0  0  0  0  0  0  0  0  0
   69.6500   37.1960    0.8830 O   0  0  0  0  0  0  0  0  0  0  0  0
   70.3310   38.9850   -0.6180 C   0  0  0  0  0  0  0  0  0  0  0  0
   71.7410   38.5880   -0.6020 C   0  0  0  0  0  0  0  0  0  0  0  0
   72.1390   37.6290    0.0560 O   0  0  0  0  0  0  0  0  0  0  0  0
   72.6870   39.3890   -1.4130 C   0  0  0  0  0  0  0  0  0  0  0  0
   74.0170   39.0130   -1.3800 O   0  0  0  0  0  0  0  0  0  0  0  0
   74.1770   41.9400   -2.3820 C   0  0  0  0  0  0  0  0  0  0  0  0
   74.9970   42.8060   -3.1300 C   0  0  0  0  0  0  0  0  0  0  0  0
   76.1890   43.4330   -2.4630 C   0  0  0  0  0  0  0  0  0  0  0  0
   77.0375   42.0174   -5.1013 H   0  0  0  0  0  0  0  0  0  0  0  0
   76.5898   41.1406   -6.6038 H   0  0  0  0  0  0  0  0  0  0  0  0
   77.9901   42.2658   -6.6038 H   0  0  0  0  0  0  0  0  0  0  0  0
   76.6270   43.9444   -7.2095 H   0  0  0  0  0  0  0  0  0  0  0  0
   75.2144   42.8133   -7.1535 H   0  0  0  0  0  0  0  0  0  0  0  0
   76.3642   44.3418   -4.7728 H   0  0  0  0  0  0  0  0  0  0  0  0
   74.8698   44.7729   -5.7068 H   0  0  0  0  0  0  0  0  0  0  0  0
   73.3133   42.6046   -6.1024 H   0  0  0  0  0  0  0  0  0  0  0  0
   71.8771   41.0976   -4.7492 H   0  0  0  0  0  0  0  0  0  0  0  0
   68.3501   41.3728   -2.0309 H   0  0  0  0  0  0  0  0  0  0  0  0
   66.6174   40.1279   -0.7358 H   0  0  0  0  0  0  0  0  0  0  0  0
   67.2694   38.1482    0.6420 H   0  0  0  0  0  0  0  0  0  0  0  0
   69.0050   36.5280    1.0090 H   0  0  0  0  0  0  0  0  0  0  0  0
   74.6810   39.6540   -1.2210 H   0  0  0  0  0  0  0  0  0  0  0  0
   74.4196   41.7527   -1.3256 H   0  0  0  0  0  0  0  0  0  0  0  0
   76.0725   43.3717   -1.3709 H   0  0  0  0  0  0  0  0  0  0  0  0
   77.1016   42.8982   -2.7650 H   0  0  0  0  0  0  0  0  0  0  0  0
   76.2654   44.4880   -2.7650 H   0  0  0  0  0  0  0  0  0  0  0  0
  1  2  1  0
  2  3  1  0
  3  4  1  0
  4  5  2  0
  5  6  1  0
  6  7  2  0
  7  8  1  0
  8  9  1  0
  9 10  1  0
 10 11  2  0
 11 12  1  0
 12 13  2  0
 13 14  1  0
 14 15  1  0
 14 16  2  0
 16 17  1  0
 17 18  2  0
 17 19  1  0
 19 20  1  0
  7 21  1  0
 21 22  2  0
 22 23  1  0
 22  4  1  0
 19  8  2  0
 16 10  1  0
  1 24  1  0
  1 25  1  0
  1 26  1  0
  2 27  1  0
  2 28  1  0
  3 29  1  0
  3 30  1  0
  5 31  1  0
  6 32  1  0
 11 33  1  0
 12 34  1  0
 13 35  1  0
 15 36  1  0
 20 37  1  0
 21 38  1  0
 23 39  1  0
 23 40  1  0
 23 41  1  0
M  END
>  <meeko>  (3) 
{"is_sidechain": [false], "free_energy": -7.4, "intermolecular_energy": -9.197, "internal_energy": -0.488}

$$$$
cand_055_out
     RDKit          3D

 41 43  0  0  0  0  0  0  0  0999 V2000
   72.3380   36.5320    0.1210 C   0  0  0  0  0  0  0  0  0  0  0  0
   70.9310   36.4260    0.6860 C   0  0  0  0  0  0  0  0  0  0  0  0
   70.5490   37.6830    1.4700 C   0  0  0  0  0  0  0  0  0  0  0  0
   70.0090   38.7680    0.5650 C   0  0  0  0  0  0  0  0  0  0  0  0
   68.6810   38.6650    0.1190 C   0  0  0  0  0  0  0  0  0  0  0  0
   68.1290   39.6300   -0.7260 C   0  0  0  0  0  0  0  0  0  0  0  0
   68.8850   40.7280   -1.1450 C   0  0  0  0  0  0  0  0  0  0  0  0
   68.3330   41.7520   -2.0590 C   0  0  0  0  0  0  0  0  0  0  0  0
   67.3920   42.5710   -1.4460 O   0  0  0  0  0  0  0  0  0  0  0  0
   66.7990   43.5650   -2.1800 C   0  0  0  0  0  0  0  0  0  0  0  0
   65.8710   44.3730   -1.5210 C   0  0  0  0  0  0  0  0  0  0  0  0
   65.2290   45.4030   -2.2110 C   0  0  0  0  0  0  0  0  0  0  0  0
   65.5140   45.6250   -3.5610 C   0  0  0  0  0  0  0  0  0  0  0  0
   66.4410   44.8180   -4.2150 C   0  0  0  0  0  0  0  0  0  0  0  0
   66.6710   45.0890   -5.5360 O   0  0  0  0  0  0  0  0  0  0  0  0
   67.0830   43.7880   -3.5230 C   0  0  0  0  0  0  0  0  0  0  0  0
   68.0620   42.9160   -4.1750 C   0  0  0  0  0  0  0  0  0  0  0  0
   68.3610   43.0440   -5.3600 O   0  0  0  0  0  0  0  0  0  0  0  0
   68.6920   41.8580   -3.3510 C   0  0  0  0  0  0  0  0  0  0  0  0
   69.6070   41.0330   -3.9810 O   0  0  0  0  0  0  0  0  0  0  0  0
   70.2170   40.8240   -0.7120 C   0  0  0  0  0  0  0  0  0  0  0  0
   70.7920   39.8570    0.1340 C   0  0  0  0  0  0  0  0  0  0  0  0
   72.2190   40.0330    0.5730 C   0  0  0  0  0  0  0  0  0  0  0  0
   73.0619   36.5865    0.9475 H   0  0  0  0  0  0  0  0  0  0  0  0
   72.5527   35.6475   -0.4967 H   0  0  0  0  0  0  0  0  0  0  0  0
   72.4177   37.4387   -0.4967 H   0  0  0  0  0  0  0  0  0  0  0  0
   70.2212   36.2919   -0.1436 H   0  0  0  0  0  0  0  0  0  0  0  0
   70.8966   35.5663    1.3714 H   0  0  0  0  0  0  0  0  0  0  0  0
   69.7785   37.4205    2.2099 H   0  0  0  0  0  0  0  0  0  0  0  0
   71.4549   38.0676    1.9614 H   0  0  0  0  0  0  0  0  0  0  0  0
   68.0665   37.8111    0.4403 H   0  0  0  0  0  0  0  0  0  0  0  0
   67.0880   39.5247   -1.0654 H   0  0  0  0  0  0  0  0  0  0  0  0
   65.6456   44.1983   -0.4586 H   0  0  0  0  0  0  0  0  0  0  0  0
   64.4982   46.0403   -1.6916 H   0  0  0  0  0  0  0  0  0  0  0  0
   65.0072   46.4353   -4.1055 H   0  0  0  0  0  0  0  0  0  0  0  0
   66.0030   44.9230   -6.1720 H   0  0  0  0  0  0  0  0  0  0  0  0
   70.2140   41.3920   -4.5970 H   0  0  0  0  0  0  0  0  0  0  0  0
   70.8274   41.6773   -1.0425 H   0  0  0  0  0  0  0  0  0  0  0  0
   72.2665   40.0389    1.6720 H   0  0  0  0  0  0  0  0  0  0  0  0
   72.8273   39.2031    0.1841 H   0  0  0  0  0  0  0  0  0  0  0  0
   72.6074   40.9859    0.1841 H   0  0  0  0  0  0  0  0  0  0  0  0
  1  2  1  0
  2  3  1  0
  3  4  1  0
  4  5  2  0
  5  6  1  0
  6  7  2  0
  7  8  1  0
  8  9  1  0
  9 10  1  0
 10 11  2  0
 11 12  1  0
 12 13  2  0
 13 14  1  0
 14 15  1  0
 14 16  2  0
 16 17  1  0
 17 18  2  0
 17 19  1  0
 19 20  1  0
  7 21  1  0
 21 22  2  0
 22 23  1  0
 22  4  1  0
 19  8  2  0
 16 10  1  0
  1 24  1  0
  1 25  1  0
  1 26  1  0
  2 27  1  0
  2 28  1  0
  3 29  1  0
  3 30  1  0
  5 31  1  0
  6 32  1  0
 11 33  1  0
 12 34  1  0
 13 35  1  0
 15 36  1  0
 20 37  1  0
 21 38  1  0
 23 39  1  0
 23 40  1  0
 23 41  1  0
M  END
>  <meeko>  (4) 
{"is_sidechain": [false], "free_energy": -7.339, "intermolecular_energy": -9.042, "internal_energy": -0.567}

$$$$
cand_055_out
     RDKit          3D

 41 43  0  0  0  0  0  0  0  0999 V2000
   76.7910   43.9280   -5.5180 C   0  0  0  0  0  0  0  0  0  0  0  0
   76.2180   45.1400   -4.8020 C   0  0  0  0  0  0  0  0  0  0  0  0
   75.9600   44.8440   -3.3230 C   0  0  0  0  0  0  0  0  0  0  0  0
   74.6830   44.0590   -3.1210 C   0  0  0  0  0  0  0  0  0  0  0  0
   73.4600   44.6930   -3.3930 C   0  0  0  0  0  0  0  0  0  0  0  0
   72.2460   44.0230   -3.2170 C   0  0  0  0  0  0  0  0  0  0  0  0
   72.2220   42.7000   -2.7690 C   0  0  0  0  0  0  0  0  0  0  0  0
   70.9510   41.9750   -2.5510 C   0  0  0  0  0  0  0  0  0  0  0  0
   70.9970   41.1230   -1.4530 O   0  0  0  0  0  0  0  0  0  0  0  0
   69.8840   40.3880   -1.1360 C   0  0  0  0  0  0  0  0  0  0  0  0
   69.9700   39.5570   -0.0180 C   0  0  0  0  0  0  0  0  0  0  0  0
   68.8720   38.7800    0.3590 C   0  0  0  0  0  0  0  0  0  0  0  0
   67.6900   38.8330   -0.3820 C   0  0  0  0  0  0  0  0  0  0  0  0
   67.6070   39.6640   -1.4970 C   0  0  0  0  0  0  0  0  0  0  0  0
   66.4200   39.6670   -2.1780 O   0  0  0  0  0  0  0  0  0  0  0  0
   68.7050   40.4420   -1.8730 C   0  0  0  0  0  0  0  0  0  0  0  0
   68.6600   41.3270   -3.0380 C   0  0  0  0  0  0  0  0  0  0  0  0
   67.6580   41.4230   -3.7430 O   0  0  0  0  0  0  0  0  0  0  0  0
   69.8760   42.1150   -3.3480 C   0  0  0  0  0  0  0  0  0  0  0  0
   69.8250   42.9380   -4.4580 O   0  0  0  0  0  0  0  0  0  0  0  0
   73.4430   42.0700   -2.4820 C   0  0  0  0  0  0  0  0  0  0  0  0
   74.6740   42.7330   -2.6470 C   0  0  0  0  0  0  0  0  0  0  0  0
   75.9450   41.9900   -2.3370 C   0  0  0  0  0  0  0  0  0  0  0  0
   77.1381   43.1939   -4.7759 H   0  0  0  0  0  0  0  0  0  0  0  0
   76.0129   43.4726   -6.1481 H   0  0  0  0  0  0  0  0  0  0  0  0
   77.6368   44.2403   -6.1481 H   0  0  0  0  0  0  0  0  0  0  0  0
   76.9319   45.9731   -4.8811 H   0  0  0  0  0  0  0  0  0  0  0  0
   75.2599   45.4009   -5.2753 H   0  0  0  0  0  0  0  0  0  0  0  0
   76.8032   44.2608   -2.9244 H   0  0  0  0  0  0  0  0  0  0  0  0
   75.8581   45.8037   -2.7952 H   0  0  0  0  0  0  0  0  0  0  0  0
   73.4573   45.7334   -3.7502 H   0  0  0  0  0  0  0  0  0  0  0  0
   71.3007   44.5423   -3.4333 H   0  0  0  0  0  0  0  0  0  0  0  0
   70.9014   39.5139    0.5657 H   0  0  0  0  0  0  0  0  0  0  0  0
   68.9388   38.1257    1.2407 H   0  0  0  0  0  0  0  0  0  0  0  0
   66.8260   38.2199   -0.0860 H   0  0  0  0  0  0  0  0  0  0  0  0
   65.7130   39.1240   -1.8890 H   0  0  0  0  0  0  0  0  0  0  0  0
   69.4230   42.6340   -5.2470 H   0  0  0  0  0  0  0  0  0  0  0  0
   73.4380   41.0317   -2.1189 H   0  0  0  0  0  0  0  0  0  0  0  0
   76.0703   41.9168   -1.2466 H   0  0  0  0  0  0  0  0  0  0  0  0
   75.8937   40.9796   -2.7689 H   0  0  0  0  0  0  0  0  0  0  0  0
   76.8003   42.5304   -2.7689 H   0  0  0  0  0  0  0  0  0  0  0  0
  1  2  1  0
  2  3  1  0
  3  4  1  0
  4  5  2  0
  5  6  1  0
  6  7  2  0
  7  8  1  0
  8  9  1  0
  9 10  1  0
 10 11  2  0
 11 12  1  0
 12 13  2  0
 13 14  1  0
 14 15  1  0
 14 16  2  0
 16 17  1  0
 17 18  2  0
 17 19  1  0
 19 20  1  0
  7 21  1  0
 21 22  2  0
 22 23  1  0
 22  4  1  0
 19  8  2  0
 16 10  1  0
  1 24  1  0
  1 25  1  0
  1 26  1  0
  2 27  1  0
  2 28  1  0
  3 29  1  0
  3 30  1  0
  5 31  1  0
  6 32  1  0
 11 33  1  0
 12 34  1  0
 13 35  1  0
 15 36  1  0
 20 37  1  0
 21 38  1  0
 23 39  1  0
 23 40  1  0
 23 41  1  0
M  END
>  <meeko>  (5) 
{"is_sidechain": [false], "free_energy": -7.323, "intermolecular_energy": -9.244, "internal_energy": -0.345}

$$$$
cand_055_out
     RDKit          3D

 41 43  0  0  0  0  0  0  0  0999 V2000
   70.7670   36.3620    1.2100 C   0  0  0  0  0  0  0  0  0  0  0  0
   69.9910   37.5820    0.7390 C   0  0  0  0  0  0  0  0  0  0  0  0
   70.6400   38.8790    1.2280 C   0  0  0  0  0  0  0  0  0  0  0  0
   71.1650   39.7120    0.0790 C   0  0  0  0  0  0  0  0  0  0  0  0
   70.3450   40.7280   -0.4370 C   0  0  0  0  0  0  0  0  0  0  0  0
   70.7700   41.5250   -1.5030 C   0  0  0  0  0  0  0  0  0  0  0  0
   72.0280   41.3310   -2.0790 C   0  0  0  0  0  0  0  0  0  0  0  0
   72.4940   42.1430   -3.2240 C   0  0  0  0  0  0  0  0  0  0  0  0
   72.8260   43.4440   -2.8630 O   0  0  0  0  0  0  0  0  0  0  0  0
   73.2740   44.3070   -3.8300 C   0  0  0  0  0  0  0  0  0  0  0  0
   73.6100   45.5990   -3.4200 C   0  0  0  0  0  0  0  0  0  0  0  0
   74.0710   46.5280   -4.3550 C   0  0  0  0  0  0  0  0  0  0  0  0
   74.1950   46.1670   -5.6990 C   0  0  0  0  0  0  0  0  0  0  0  0
   73.8600   44.8780   -6.1040 C   0  0  0  0  0  0  0  0  0  0  0  0
   74.0040   44.5920   -7.4340 O   0  0  0  0  0  0  0  0  0  0  0  0
   73.3990   43.9480   -5.1680 C   0  0  0  0  0  0  0  0  0  0  0  0
   73.0350   42.5830   -5.5530 C   0  0  0  0  0  0  0  0  0  0  0  0
   73.1110   42.1930   -6.7160 O   0  0  0  0  0  0  0  0  0  0  0  0
   72.5640   41.6730   -4.4830 C   0  0  0  0  0  0  0  0  0  0  0  0
   72.2120   40.3900   -4.8610 O   0  0  0  0  0  0  0  0  0  0  0  0
   72.8420   40.3050   -1.5740 C   0  0  0  0  0  0  0  0  0  0  0  0
   72.4260   39.4880   -0.5060 C   0  0  0  0  0  0  0  0  0  0  0  0
   73.3580   38.4190   -0.0050 C   0  0  0  0  0  0  0  0  0  0  0  0
   70.7817   36.3389    2.3097 H   0  0  0  0  0  0  0  0  0  0  0  0
   70.2825   35.4503    0.8305 H   0  0  0  0  0  0  0  0  0  0  0  0
   71.7981   36.4143    0.8305 H   0  0  0  0  0  0  0  0  0  0  0  0
   69.9650   37.5872   -0.3607 H   0  0  0  0  0  0  0  0  0  0  0  0
   68.9734   37.5263    1.1530 H   0  0  0  0  0  0  0  0  0  0  0  0
   69.8912   39.4658    1.7803 H   0  0  0  0  0  0  0  0  0  0  0  0
   71.4895   38.6139    1.8745 H   0  0  0  0  0  0  0  0  0  0  0  0
   69.3523   40.8993    0.0049 H   0  0  0  0  0  0  0  0  0  0  0  0
   70.1080   42.3125   -1.8924 H   0  0  0  0  0  0  0  0  0  0  0  0
   73.5117   45.8844   -2.3622 H   0  0  0  0  0  0  0  0  0  0  0  0
   74.3369   47.5456   -4.0329 H   0  0  0  0  0  0  0  0  0  0  0  0
   74.5565   46.8997   -6.4355 H   0  0  0  0  0  0  0  0  0  0  0  0
   73.9630   45.2810   -8.0680 H   0  0  0  0  0  0  0  0  0  0  0  0
   71.9020   40.2260   -5.7290 H   0  0  0  0  0  0  0  0  0  0  0  0
   73.8309   40.1350   -2.0247 H   0  0  0  0  0  0  0  0  0  0  0  0
   73.3582   38.4188    1.0950 H   0  0  0  0  0  0  0  0  0  0  0  0
   73.0217   37.4380   -0.3718 H   0  0  0  0  0  0  0  0  0  0  0  0
   74.3757   38.6184   -0.3718 H   0  0  0  0  0  0  0  0  0  0  0  0
  1  2  1  0
  2  3  1  0
  3  4  1  0
  4  5  2  0
  5  6  1  0
  6  7  2  0
  7  8  1  0
  8  9  1  0
  9 10  1  0
 10 11  2  0
 11 12  1  0
 12 13  2  0
 13 14  1  0
 14 15  1  0
 14 16  2  0
 16 17  1  0
 17 18  2  0
 17 19  1  0
 19 20  1  0
  7 21  1  0
 21 22  2  0
 22 23  1  0
 22  4  1  0
 19  8  2  0
 16 10  1  0
  1 24  1  0
  1 25  1  0
  1 26  1  0
  2 27  1  0
  2 28  1  0
  3 29  1  0
  3 30  1  0
  5 31  1  0
  6 32  1  0
 11 33  1  0
 12 34  1  0
 13 35  1  0
 15 36  1  0
 20 37  1  0
 21 38  1  0
 23 39  1  0
 23 40  1  0
 23 41  1  0
M  END
>  <meeko>  (6) 
{"is_sidechain": [false], "free_energy": -7.314, "intermolecular_energy": -9.104, "internal_energy": -0.475}

$$$$
cand_055_out
     RDKit          3D

 41 43  0  0  0  0  0  0  0  0999 V2000
   76.0870   45.6360   -5.4770 C   0  0  0  0  0  0  0  0  0  0  0  0
   74.7740   46.4000   -5.4180 C   0  0  0  0  0  0  0  0  0  0  0  0
   73.6230   45.5770   -5.9980 C   0  0  0  0  0  0  0  0  0  0  0  0
   73.2660   44.4050   -5.1110 C   0  0  0  0  0  0  0  0  0  0  0  0
   72.8930   44.6630   -3.7820 C   0  0  0  0  0  0  0  0  0  0  0  0
   72.5620   43.6220   -2.9120 C   0  0  0  0  0  0  0  0  0  0  0  0
   72.5900   42.2940   -3.3460 C   0  0  0  0  0  0  0  0  0  0  0  0
   72.2670   41.1710   -2.4390 C   0  0  0  0  0  0  0  0  0  0  0  0
   70.9130   41.0950   -2.1350 O   0  0  0  0  0  0  0  0  0  0  0  0
   70.4750   40.0970   -1.3020 C   0  0  0  0  0  0  0  0  0  0  0  0
   69.1060   40.0490   -1.0350 C   0  0  0  0  0  0  0  0  0  0  0  0
   68.5940   39.0590   -0.1930 C   0  0  0  0  0  0  0  0  0  0  0  0
   69.4510   38.1190    0.3830 C   0  0  0  0  0  0  0  0  0  0  0  0
   70.8170   38.1690    0.1140 C   0  0  0  0  0  0  0  0  0  0  0  0
   71.5990   37.2190    0.7120 O   0  0  0  0  0  0  0  0  0  0  0  0
   71.3280   39.1590   -0.7290 C   0  0  0  0  0  0  0  0  0  0  0  0
   72.7570   39.2470   -1.0360 C   0  0  0  0  0  0  0  0  0  0  0  0
   73.5740   38.4610   -0.5630 O   0  0  0  0  0  0  0  0  0  0  0  0
   73.1960   40.3300   -1.9470 C   0  0  0  0  0  0  0  0  0  0  0  0
   74.5490   40.4110   -2.2200 O   0  0  0  0  0  0  0  0  0  0  0  0
   72.9770   42.0340   -4.6690 C   0  0  0  0  0  0  0  0  0  0  0  0
   73.3210   43.0700   -5.5580 C   0  0  0  0  0  0  0  0  0  0  0  0
   73.7100   42.7180   -6.9670 C   0  0  0  0  0  0  0  0  0  0  0  0
   76.4385   45.4315   -4.4549 H   0  0  0  0  0  0  0  0  0  0  0  0
   75.9346   44.6856   -6.0094 H   0  0  0  0  0  0  0  0  0  0  0  0
   76.8380   46.2381   -6.0094 H   0  0  0  0  0  0  0  0  0  0  0  0
   74.5477   46.6423   -4.3691 H   0  0  0  0  0  0  0  0  0  0  0  0
   74.8798   47.3169   -6.0164 H   0  0  0  0  0  0  0  0  0  0  0  0
   72.7404   46.2249   -6.1039 H   0  0  0  0  0  0  0  0  0  0  0  0
   73.9435   45.1818   -6.9732 H   0  0  0  0  0  0  0  0  0  0  0  0
   72.8610   45.7014   -3.4206 H   0  0  0  0  0  0  0  0  0  0  0  0
   72.2763   43.8497   -1.8744 H   0  0  0  0  0  0  0  0  0  0  0  0
   68.4307   40.7902   -1.4873 H   0  0  0  0  0  0  0  0  0  0  0  0
   67.5148   39.0199    0.0165 H   0  0  0  0  0  0  0  0  0  0  0  0
   69.0483   37.3406    1.0478 H   0  0  0  0  0  0  0  0  0  0  0  0
   71.8300   37.3030    1.6160 H   0  0  0  0  0  0  0  0  0  0  0  0
   74.9950   39.6800   -2.5990 H   0  0  0  0  0  0  0  0  0  0  0  0
   73.0126   40.9926   -5.0213 H   0  0  0  0  0  0  0  0  0  0  0  0
   74.5255   41.9800   -6.9487 H   0  0  0  0  0  0  0  0  0  0  0  0
   72.8419   42.2922   -7.4916 H   0  0  0  0  0  0  0  0  0  0  0  0
   74.0472   43.6242   -7.4916 H   0  0  0  0  0  0  0  0  0  0  0  0
  1  2  1  0
  2  3  1  0
  3  4  1  0
  4  5  2  0
  5  6  1  0
  6  7  2  0
  7  8  1  0
  8  9  1  0
  9 10  1  0
 10 11  2  0
 11 12  1  0
 12 13  2  0
 13 14  1  0
 14 15  1  0
 14 16  2  0
 16 17  1  0
 17 18  2  0
 17 19  1  0
 19 20  1  0
  7 21  1  0
 21 22  2  0
 22 23  1  0
 22  4  1  0
 19  8  2  0
 16 10  1  0
  1 24  1  0
  1 25  1  0
  1 26  1  0
  2 27  1  0
  2 28  1  0
  3 29  1  0
  3 30  1  0
  5 31  1  0
  6 32  1  0
 11 33  1  0
 12 34  1  0
 13 35  1  0
 15 36  1  0
 20 37  1  0
 21 38  1  0
 23 39  1  0
 23 40  1  0
 23 41  1  0
M  END
>  <meeko>  (7) 
{"is_sidechain": [false], "free_energy": -7.238, "intermolecular_energy": -8.813, "internal_energy": -0.672}

$$$$
cand_055_out
     RDKit          3D

 41 43  0  0  0  0  0  0  0  0999 V2000
   70.7320   36.5970    0.8620 C   0  0  0  0  0  0  0  0  0  0  0  0
   70.5060   38.1000    0.9170 C   0  0  0  0  0  0  0  0  0  0  0  0
   71.7500   38.8680    0.4650 C   0  0  0  0  0  0  0  0  0  0  0  0
   71.4350   39.8430   -0.6480 C   0  0  0  0  0  0  0  0  0  0  0  0
   70.7110   41.0040   -0.3320 C   0  0  0  0  0  0  0  0  0  0  0  0
   70.3810   41.9380   -1.3170 C   0  0  0  0  0  0  0  0  0  0  0  0
   70.7690   41.7390   -2.6450 C   0  0  0  0  0  0  0  0  0  0  0  0
   70.4130   42.6990   -3.7130 C   0  0  0  0  0  0  0  0  0  0  0  0
   69.0730   42.6290   -4.0760 O   0  0  0  0  0  0  0  0  0  0  0  0
   68.6070   43.4660   -5.0570 C   0  0  0  0  0  0  0  0  0  0  0  0
   67.2520   43.3720   -5.3800 C   0  0  0  0  0  0  0  0  0  0  0  0
   66.7130   44.1940   -6.3710 C   0  0  0  0  0  0  0  0  0  0  0  0
   67.5280   45.1100   -7.0400 C   0  0  0  0  0  0  0  0  0  0  0  0
   68.8790   45.2020   -6.7160 C   0  0  0  0  0  0  0  0  0  0  0  0
   69.6200   46.1180   -7.4100 O   0  0  0  0  0  0  0  0  0  0  0  0
   69.4180   44.3790   -5.7230 C   0  0  0  0  0  0  0  0  0  0  0  0
   70.8330   44.4440   -5.3520 C   0  0  0  0  0  0  0  0  0  0  0  0
   71.6140   45.2180   -5.9000 O   0  0  0  0  0  0  0  0  0  0  0  0
   71.3020   43.5330   -4.2820 C   0  0  0  0  0  0  0  0  0  0  0  0
   72.6440   43.5940   -3.9490 O   0  0  0  0  0  0  0  0  0  0  0  0
   71.4790   40.5710   -2.9640 C   0  0  0  0  0  0  0  0  0  0  0  0
   71.8130   39.6160   -1.9850 C   0  0  0  0  0  0  0  0  0  0  0  0
   72.5900   38.3970   -2.3970 C   0  0  0  0  0  0  0  0  0  0  0  0
   70.7921   36.1976    1.8852 H   0  0  0  0  0  0  0  0  0  0  0  0
   69.8955   36.1196    0.3305 H   0  0  0  0  0  0  0  0  0  0  0  0
   71.6719   36.3867    0.3305 H   0  0  0  0  0  0  0  0  0  0  0  0
   69.6653   38.3600    0.2570 H   0  0  0  0  0  0  0  0  0  0  0  0
   70.2856   38.3793    1.9579 H   0  0  0  0  0  0  0  0  0  0  0  0
   72.1554   39.4253    1.3224 H   0  0  0  0  0  0  0  0  0  0  0  0
   72.4818   38.1400    0.0848 H   0  0  0  0  0  0  0  0  0  0  0  0
   70.3987   41.1808    0.7078 H   0  0  0  0  0  0  0  0  0  0  0  0
   69.8106   42.8383   -1.0450 H   0  0  0  0  0  0  0  0  0  0  0  0
   66.6096   42.6506   -4.8538 H   0  0  0  0  0  0  0  0  0  0  0  0
   65.6453   44.1203   -6.6253 H   0  0  0  0  0  0  0  0  0  0  0  0
   67.1034   45.7575   -7.8213 H   0  0  0  0  0  0  0  0  0  0  0  0
   70.5560   46.0910   -7.3720 H   0  0  0  0  0  0  0  0  0  0  0  0
   73.0440   42.8850   -3.4860 H   0  0  0  0  0  0  0  0  0  0  0  0
   71.7826   40.3972   -4.0069 H   0  0  0  0  0  0  0  0  0  0  0  0
   72.9323   37.8599   -1.5001 H   0  0  0  0  0  0  0  0  0  0  0  0
   71.9458   37.7367   -2.9962 H   0  0  0  0  0  0  0  0  0  0  0  0
   73.4605   38.7022   -2.9962 H   0  0  0  0  0  0  0  0  0  0  0  0
  1  2  1  0
  2  3  1  0
  3  4  1  0
  4  5  2  0
  5  6  1  0
  6  7  2  0
  7  8  1  0
  8  9  1  0
  9 10  1  0
 10 11  2  0
 11 12  1  0
 12 13  2  0
 13 14  1  0
 14 15  1  0
 14 16  2  0
 16 17  1  0
 17 18  2  0
 17 19  1  0
 19 20  1  0
  7 21  1  0
 21 22  2  0
 22 23  1  0
 22  4  1  0
 19  8  2  0
 16 10  1  0
  1 24  1  0
  1 25  1  0
  1 26  1  0
  2 27  1  0
  2 28  1  0
  3 29  1  0
  3 30  1  0
  5 31  1  0
  6 32  1  0
 11 33  1  0
 12 34  1  0
 13 35  1  0
 15 36  1  0
 20 37  1  0
 21 38  1  0
 23 39  1  0
 23 40  1  0
 23 41  1  0
M  END
>  <meeko>  (8) 
{"is_sidechain": [false], "free_energy": -7.183, "intermolecular_energy": -8.824, "internal_energy": -0.592}

$$$$
cand_055_out
     RDKit          3D

 41 43  0  0  0  0  0  0  0  0999 V2000
   70.7460   36.7140    0.8540 C   0  0  0  0  0  0  0  0  0  0  0  0
   70.7540   38.2060    1.1440 C   0  0  0  0  0  0  0  0  0  0  0  0
   71.8900   38.9130    0.4020 C   0  0  0  0  0  0  0  0  0  0  0  0
   71.3680   39.8520   -0.6630 C   0  0  0  0  0  0  0  0  0  0  0  0
   70.5450   40.9190   -0.2650 C   0  0  0  0  0  0  0  0  0  0  0  0
   70.0250   41.8150   -1.2030 C   0  0  0  0  0  0  0  0  0  0  0  0
   70.3160   41.6720   -2.5620 C   0  0  0  0  0  0  0  0  0  0  0  0
   69.7590   42.5920   -3.5790 C   0  0  0  0  0  0  0  0  0  0  0  0
   70.6500   43.5950   -3.9450 O   0  0  0  0  0  0  0  0  0  0  0  0
   70.2610   44.5180   -4.8810 C   0  0  0  0  0  0  0  0  0  0  0  0
   71.1910   45.4980   -5.2290 C   0  0  0  0  0  0  0  0  0  0  0  0
   70.8580   46.4700   -6.1760 C   0  0  0  0  0  0  0  0  0  0  0  0
   69.5950   46.4620   -6.7720 C   0  0  0  0  0  0  0  0  0  0  0  0
   68.6700   45.4820   -6.4230 C   0  0  0  0  0  0  0  0  0  0  0  0
   67.4520   45.5340   -7.0450 O   0  0  0  0  0  0  0  0  0  0  0  0
   69.0040   44.5100   -5.4770 C   0  0  0  0  0  0  0  0  0  0  0  0
   68.0590   43.4630   -5.0810 C   0  0  0  0  0  0  0  0  0  0  0  0
   66.9280   43.3940   -5.5560 O   0  0  0  0  0  0  0  0  0  0  0  0
   68.5140   42.4760   -4.0750 C   0  0  0  0  0  0  0  0  0  0  0  0
   67.6090   41.4990   -3.7000 O   0  0  0  0  0  0  0  0  0  0  0  0
   71.1260   40.5980   -2.9610 C   0  0  0  0  0  0  0  0  0  0  0  0
   71.6520   39.6810   -2.0310 C   0  0  0  0  0  0  0  0  0  0  0  0
   72.5270   38.5640   -2.5290 C   0  0  0  0  0  0  0  0  0  0  0  0
   70.7430   36.1562    1.8021 H   0  0  0  0  0  0  0  0  0  0  0  0
   69.8465   36.4578    0.2750 H   0  0  0  0  0  0  0  0  0  0  0  0
   71.6427   36.4482    0.2750 H   0  0  0  0  0  0  0  0  0  0  0  0
   69.7943   38.6379    0.8241 H   0  0  0  0  0  0  0  0  0  0  0  0
   70.9052   38.3478    2.2243 H   0  0  0  0  0  0  0  0  0  0  0  0
   72.4828   39.4908    1.1264 H   0  0  0  0  0  0  0  0  0  0  0  0
   72.5053   38.1459   -0.0909 H   0  0  0  0  0  0  0  0  0  0  0  0
   70.3065   41.0510    0.8007 H   0  0  0  0  0  0  0  0  0  0  0  0
   69.3803   42.6409   -0.8681 H   0  0  0  0  0  0  0  0  0  0  0  0
   72.1852   45.5055   -4.7584 H   0  0  0  0  0  0  0  0  0  0  0  0
   71.5912   47.2421   -6.4523 H   0  0  0  0  0  0  0  0  0  0  0  0
   69.3317   47.2285   -7.5157 H   0  0  0  0  0  0  0  0  0  0  0  0
   66.6960   45.8230   -6.5720 H   0  0  0  0  0  0  0  0  0  0  0  0
   67.5420   41.2440   -2.8010 H   0  0  0  0  0  0  0  0  0  0  0  0
   71.3562   40.4690   -4.0289 H   0  0  0  0  0  0  0  0  0  0  0  0
   72.9521   38.0213   -1.6719 H   0  0  0  0  0  0  0  0  0  0  0  0
   71.9274   37.8730   -3.1397 H   0  0  0  0  0  0  0  0  0  0  0  0
   73.3415   38.9807   -3.1397 H   0  0  0  0  0  0  0  0  0  0  0  0
  1  2  1  0
  2  3  1  0
  3  4  1  0
  4  5  2  0
  5  6  1  0
  6  7  2  0
  7  8  1  0
  8  9  1  0
  9 10  1  0
 10 11  2  0
 11 12  1  0
 12 13  2  0
 13 14  1  0
 14 15  1  0
 14 16  2  0
 16 17  1  0
 17 18  2  0
 17 19  1  0
 19 20  1  0
  7 21  1  0
 21 22  2  0
 22 23  1  0
 22  4  1  0
 19  8  2  0
 16 10  1  0
  1 24  1  0
  1 25  1  0
  1 26  1  0
  2 27  1  0
  2 28  1  0
  3 29  1  0
  3 30  1  0
  5 31  1  0
  6 32  1  0
 11 33  1  0
 12 34  1  0
 13 35  1  0
 15 36  1  0
 20 37  1  0
 21 38  1  0
 23 39  1  0
 23 40  1  0
 23 41  1  0
M  END
>  <meeko>  (9) 
{"is_sidechain": [false], "free_energy": -7.129, "intermolecular_energy": -8.707, "internal_energy": -0.642}

$$$$
