cand_001_out
     RDKit          3D

 45 48  0  0  0  0  0  0  0  0999 V2000
   67.9490   40.4870   -2.3120 C   0  0  0  0  0  0  0  0  0  0  0  0
   69.3520   41.0030   -2.4760 C   0  0  0  0  0  0  0  0  0  0  0  0
   69.6910   41.6610   -3.6690 C   0  0  0  0  0  0  0  0  0  0  0  0
   70.9710   42.1870   -3.8620 C   0  0  0  0  0  0  0  0  0  0  0  0
   71.9440   42.0810   -2.8640 C   0  0  0  0  0  0  0  0  0  0  0  0
   73.2980   42.6310   -3.0920 C   0  0  0  0  0  0  0  0  0  0  0  0
   73.3260   44.0210   -3.0660 O   0  0  0  0  0  0  0  0  0  0  0  0
   74.5230   44.6630   -3.2630 C   0  0  0  0  0  0  0  0  0  0  0  0
   74.5040   46.0580   -3.2440 C   0  0  0  0  0  0  0  0  0  0  0  0
   75.6870   46.7730   -3.4360 C   0  0  0  0  0  0  0  0  0  0  0  0
   76.8890   46.0940   -3.6480 C   0  0  0  0  0  0  0  0  0  0  0  0
   76.9050   44.7020   -3.6670 C   0  0  0  0  0  0  0  0  0  0  0  0
   78.1160   44.1020   -3.8780 O   0  0  0  0  0  0  0  0  0  0  0  0
   75.7200   43.9870   -3.4740 C   0  0  0  0  0  0  0  0  0  0  0  0
   75.6940   42.5230   -3.4860 C   0  0  0  0  0  0  0  0  0  0  0  0
   76.7100   41.8550   -3.6590 O   0  0  0  0  0  0  0  0  0  0  0  0
   74.3840   41.8610   -3.2810 C   0  0  0  0  0  0  0  0  0  0  0  0
   74.3730   40.4770   -3.2810 O   0  0  0  0  0  0  0  0  0  0  0  0
   71.6090   41.4190   -1.6750 C   0  0  0  0  0  0  0  0  0  0  0  0
   70.3210   40.8860   -1.4590 C   0  0  0  0  0  0  0  0  0  0  0  0
   70.0330   40.2160   -0.1270 C   0  0  0  0  0  0  0  0  0  0  0  0
   70.6840   38.8640    0.0640 C   0  0  0  0  0  0  0  0  0  0  0  0
   71.9510   38.6090   -0.4830 C   0  0  0  0  0  0  0  0  0  0  0  0
   72.5720   37.3720   -0.2930 C   0  0  0  0  0  0  0  0  0  0  0  0
   71.9390   36.3800    0.4520 C   0  0  0  0  0  0  0  0  0  0  0  0
   70.6860   36.6250    1.0110 C   0  0  0  0  0  0  0  0  0  0  0  0
   70.0640   37.8600    0.8230 C   0  0  0  0  0  0  0  0  0  0  0  0
   67.7131   40.4002   -1.2411 H   0  0  0  0  0  0  0  0  0  0  0  0
   67.2438   41.1846   -2.7875 H   0  0  0  0  0  0  0  0  0  0  0  0
   67.8639   39.4987   -2.7875 H   0  0  0  0  0  0  0  0  0  0  0  0
   68.9375   41.7640   -4.4638 H   0  0  0  0  0  0  0  0  0  0  0  0
   71.2156   42.6898   -4.8093 H   0  0  0  0  0  0  0  0  0  0  0  0
   73.5577   46.5936   -3.0779 H   0  0  0  0  0  0  0  0  0  0  0  0
   75.6728   47.8728   -3.4204 H   0  0  0  0  0  0  0  0  0  0  0  0
   77.8212   46.6580   -3.7997 H   0  0  0  0  0  0  0  0  0  0  0  0
   78.6820   44.4150   -4.5560 H   0  0  0  0  0  0  0  0  0  0  0  0
   74.4960   40.0080   -2.4800 H   0  0  0  0  0  0  0  0  0  0  0  0
   72.3711   41.3122   -0.8890 H   0  0  0  0  0  0  0  0  0  0  0  0
   70.3883   40.8817    0.6734 H   0  0  0  0  0  0  0  0  0  0  0  0
   68.9474   40.0404   -0.1003 H   0  0  0  0  0  0  0  0  0  0  0  0
   72.4598   39.3903   -1.0667 H   0  0  0  0  0  0  0  0  0  0  0  0
   73.5622   37.1813   -0.7324 H   0  0  0  0  0  0  0  0  0  0  0  0
   72.4270   35.4052    0.5989 H   0  0  0  0  0  0  0  0  0  0  0  0
   70.1862   35.8431    1.6017 H   0  0  0  0  0  0  0  0  0  0  0  0
   69.0785   38.0481    1.2741 H   0  0  0  0  0  0  0  0  0  0  0  0
  1  2  1  0
  2  3  2  0
  3  4  1  0
  4  5  2  0
  5  6  1  0
  6  7  1  0
  7  8  1  0
  8  9  2  0
  9 10  1  0
 10 11  2  0
 11 12  1  0
 12 13  1  0
 12 14  2  0
 14 15  1  0
 15 16  2  0
 15 17  1  0
 17 18  1  0
  5 19  1  0
 19 20  2  0
 20 21  1  0
 21 22  1  0
 22 23  2  0
 23 24  1  0
 24 25  2  0
 25 26  1  0
 26 27  2  0
 20  2  1  0
 27 22  1  0
 17  6  2  0
 14  8  1  0
  1 28  1  0
  1 29  1  0
  1 30  1  0
  3 31  1  0
  4 32  1  0
  9 33  1  0
 10 34  1  0
 11 35  1  0
 13 36  1  0
 18 37  1  0
 19 38  1  0
 21 39  1  0
 21 40  1  0
 23 41  1  0
 24 42  1  0
 25 43  1  0
 26 44  1  0
 27 45  1  0
M  END
>  <meeko>  (1) 
{"is_sidechain": [false], "free_energy": -8.852, "intermolecular_energy": -10.922, "internal_energy": -0.57}

$$$$
cand_001_out
     RDKit          3D

 45 48  0  0  0  0  0  0  0  0999 V2000
   74.4510   41.1800   -2.0410 C   0  0  0  0  0  0  0  0  0  0  0  0
   73.0920   41.6220   -2.5120 C   0  0  0  0  0  0  0  0  0  0  0  0
   72.8540   42.9940   -2.6860 C   0  0  0  0  0  0  0  0  0  0  0  0
   71.6200   43.4570   -3.1510 C   0  0  0  0  0  0  0  0  0  0  0  0
   70.5940   42.5610   -3.4660 C   0  0  0  0  0  0  0  0  0  0  0  0
   69.2900   43.0700   -3.9420 C   0  0  0  0  0  0  0  0  0  0  0  0
   69.2940   43.3760   -5.2990 O   0  0  0  0  0  0  0  0  0  0  0  0
   68.1450   43.8590   -5.8720 C   0  0  0  0  0  0  0  0  0  0  0  0
   68.1960   44.1670   -7.2320 C   0  0  0  0  0  0  0  0  0  0  0  0
   67.0620   44.6600   -7.8780 C   0  0  0  0  0  0  0  0  0  0  0  0
   65.8760   44.8460   -7.1650 C   0  0  0  0  0  0  0  0  0  0  0  0
   65.8260   44.5380   -5.8080 C   0  0  0  0  0  0  0  0  0  0  0  0
   64.6330   44.7440   -5.1710 O   0  0  0  0  0  0  0  0  0  0  0  0
   66.9630   44.0440   -5.1620 C   0  0  0  0  0  0  0  0  0  0  0  0
   66.9540   43.7080   -3.7380 C   0  0  0  0  0  0  0  0  0  0  0  0
   65.9470   43.8370   -3.0440 O   0  0  0  0  0  0  0  0  0  0  0  0
   68.2140   43.1990   -3.1470 C   0  0  0  0  0  0  0  0  0  0  0  0
   68.1900   42.8720   -1.8020 O   0  0  0  0  0  0  0  0  0  0  0  0
   70.8290   41.1910   -3.2870 C   0  0  0  0  0  0  0  0  0  0  0  0
   72.0690   40.7030   -2.8240 C   0  0  0  0  0  0  0  0  0  0  0  0
   72.2490   39.2020   -2.6930 C   0  0  0  0  0  0  0  0  0  0  0  0
   71.7900   38.6140   -1.3770 C   0  0  0  0  0  0  0  0  0  0  0  0
   70.5770   39.0280   -0.8050 C   0  0  0  0  0  0  0  0  0  0  0  0
   70.1330   38.4750    0.3980 C   0  0  0  0  0  0  0  0  0  0  0  0
   70.8900   37.4970    1.0390 C   0  0  0  0  0  0  0  0  0  0  0  0
   72.0900   37.0670    0.4760 C   0  0  0  0  0  0  0  0  0  0  0  0
   72.5350   37.6180   -0.7270 C   0  0  0  0  0  0  0  0  0  0  0  0
   74.4734   41.1727   -0.9413 H   0  0  0  0  0  0  0  0  0  0  0  0
   74.6587   40.1680   -2.4187 H   0  0  0  0  0  0  0  0  0  0  0  0
   75.2143   41.8762   -2.4187 H   0  0  0  0  0  0  0  0  0  0  0  0
   73.6506   43.7159   -2.4529 H   0  0  0  0  0  0  0  0  0  0  0  0
   71.4543   44.5379   -3.2704 H   0  0  0  0  0  0  0  0  0  0  0  0
   69.1300   44.0211   -7.7945 H   0  0  0  0  0  0  0  0  0  0  0  0
   67.1023   44.9024   -8.9502 H   0  0  0  0  0  0  0  0  0  0  0  0
   64.9823   45.2353   -7.6746 H   0  0  0  0  0  0  0  0  0  0  0  0
   64.1180   44.0120   -4.8960 H   0  0  0  0  0  0  0  0  0  0  0  0
   68.1490   43.5490   -1.1560 H   0  0  0  0  0  0  0  0  0  0  0  0
   70.0242   40.4763   -3.5138 H   0  0  0  0  0  0  0  0  0  0  0  0
   71.6787   38.7185   -3.4998 H   0  0  0  0  0  0  0  0  0  0  0  0
   73.3317   39.0167   -2.7507 H   0  0  0  0  0  0  0  0  0  0  0  0
   69.9706   39.7950   -1.3089 H   0  0  0  0  0  0  0  0  0  0  0  0
   69.1839   38.8123    0.8401 H   0  0  0  0  0  0  0  0  0  0  0  0
   70.5410   37.0647    1.9884 H   0  0  0  0  0  0  0  0  0  0  0  0
   72.6871   36.2927    0.9799 H   0  0  0  0  0  0  0  0  0  0  0  0
   73.4791   37.2680   -1.1699 H   0  0  0  0  0  0  0  0  0  0  0  0
  1  2  1  0
  2  3  2  0
  3  4  1  0
  4  5  2  0
  5  6  1  0
  6  7  1  0
  7  8  1  0
  8  9  2  0
  9 10  1  0
 10 11  2  0
 11 12  1  0
 12 13  1  0
 12 14  2  0
 14 15  1  0
 15 16  2  0
 15 17  1  0
 17 18  1  0
  5 19  1  0
 19 20  2  0
 20 21  1  0
 21 22  1  0
 22 23  2  0
 23 24  1  0
 24 25  2  0
 25 26  1  0
 26 27  2  0
 20  2  1  0
 27 22  1  0
 17  6  2  0
 14  8  1  0
  1 28  1  0
  1 29  1  0
  1 30  1  0
  3 31  1  0
  4 32  1  0
  9 33  1  0
 10 34  1  0
 11 35  1  0
 13 36  1  0
 18 37  1  0
 19 38  1  0
 21 39  1  0
 21 40  1  0
 23 41  1  0
 24 42  1  0
 25 43  1  0
 26 44  1  0
 27 45  1  0
M  END
>  <meeko>  (2) 
{"is_sidechain": [false], "free_energy": -8.726, "intermolecular_energy": -10.484, "internal_energy": -0.852}

$$$$
cand_001_out
     RDKit          3D

 45 48  0  0  0  0  0  0  0  0999 V2000
   66.8480   39.5690   -1.7420 C   0  0  0  0  0  0  0  0  0  0  0  0
   68.1230   40.3390   -1.9500 C   0  0  0  0  0  0  0  0  0  0  0  0
   68.2100   41.2120   -3.0450 C   0  0  0  0  0  0  0  0  0  0  0  0
   69.3600   41.9750   -3.2680 C   0  0  0  0  0  0  0  0  0  0  0  0
   70.4500   41.8950   -2.3950 C   0  0  0  0  0  0  0  0  0  0  0  0
   71.6630   42.6990   -2.6560 C   0  0  0  0  0  0  0  0  0  0  0  0
   72.8340   42.0410   -2.2960 O   0  0  0  0  0  0  0  0  0  0  0  0
   74.0360   42.6760   -2.4860 C   0  0  0  0  0  0  0  0  0  0  0  0
   75.1850   41.9850   -2.0980 C   0  0  0  0  0  0  0  0  0  0  0  0
   76.4400   42.5720   -2.2650 C   0  0  0  0  0  0  0  0  0  0  0  0
   76.5470   43.8490   -2.8200 C   0  0  0  0  0  0  0  0  0  0  0  0
   75.3990   44.5360   -3.2060 C   0  0  0  0  0  0  0  0  0  0  0  0
   75.5760   45.7820   -3.7430 O   0  0  0  0  0  0  0  0  0  0  0  0
   74.1420   43.9470   -3.0380 C   0  0  0  0  0  0  0  0  0  0  0  0
   72.9120   44.6350   -3.4320 C   0  0  0  0  0  0  0  0  0  0  0  0
   72.9240   45.7570   -3.9330 O   0  0  0  0  0  0  0  0  0  0  0  0
   71.6300   43.9270   -3.2040 C   0  0  0  0  0  0  0  0  0  0  0  0
   70.4740   44.5810   -3.5910 O   0  0  0  0  0  0  0  0  0  0  0  0
   70.3660   41.0200   -1.3040 C   0  0  0  0  0  0  0  0  0  0  0  0
   69.2120   40.2450   -1.0600 C   0  0  0  0  0  0  0  0  0  0  0  0
   69.1930   39.3500    0.1670 C   0  0  0  0  0  0  0  0  0  0  0  0
   70.3270   38.3510    0.2470 C   0  0  0  0  0  0  0  0  0  0  0  0
   71.4480   38.4890   -0.5860 C   0  0  0  0  0  0  0  0  0  0  0  0
   72.5100   37.5860   -0.5030 C   0  0  0  0  0  0  0  0  0  0  0  0
   72.4680   36.5410    0.4160 C   0  0  0  0  0  0  0  0  0  0  0  0
   71.3670   36.3990    1.2570 C   0  0  0  0  0  0  0  0  0  0  0  0
   70.3040   37.3010    1.1770 C   0  0  0  0  0  0  0  0  0  0  0  0
   66.6599   39.4554   -0.6642 H   0  0  0  0  0  0  0  0  0  0  0  0
   66.0114   40.1130   -2.2049 H   0  0  0  0  0  0  0  0  0  0  0  0
   66.9401   38.5754   -2.2049 H   0  0  0  0  0  0  0  0  0  0  0  0
   67.3604   41.2973   -3.7385 H   0  0  0  0  0  0  0  0  0  0  0  0
   69.4082   42.6452   -4.1390 H   0  0  0  0  0  0  0  0  0  0  0  0
   75.1014   40.9790   -1.6611 H   0  0  0  0  0  0  0  0  0  0  0  0
   77.3460   42.0282   -1.9591 H   0  0  0  0  0  0  0  0  0  0  0  0
   77.5364   44.3113   -2.9520 H   0  0  0  0  0  0  0  0  0  0  0  0
   75.8460   46.4930   -3.1970 H   0  0  0  0  0  0  0  0  0  0  0  0
   70.2100   45.3660   -3.1530 H   0  0  0  0  0  0  0  0  0  0  0  0
   71.2226   40.9348   -0.6191 H   0  0  0  0  0  0  0  0  0  0  0  0
   69.2404   39.9923    1.0587 H   0  0  0  0  0  0  0  0  0  0  0  0
   68.2670   38.7597    0.1029 H   0  0  0  0  0  0  0  0  0  0  0  0
   71.4905   39.3156   -1.3105 H   0  0  0  0  0  0  0  0  0  0  0  0
   73.3812   37.7005   -1.1648 H   0  0  0  0  0  0  0  0  0  0  0  0
   73.3036   35.8282    0.4778 H   0  0  0  0  0  0  0  0  0  0  0  0
   71.3347   35.5752    1.9852 H   0  0  0  0  0  0  0  0  0  0  0  0
   69.4408   37.1872    1.8493 H   0  0  0  0  0  0  0  0  0  0  0  0
  1  2  1  0
  2  3  2  0
  3  4  1  0
  4  5  2  0
  5  6  1  0
  6  7  1  0
  7  8  1  0
  8  9  2  0
  9 10  1  0
 10 11  2  0
 11 12  1  0
 12 13  1  0
 12 14  2  0
 14 15  1  0
 15 16  2  0
 15 17  1  0
 17 18  1  0
  5 19  1  0
 19 20  2  0
 20 21  1  0
 21 22  1  0
 22 23  2  0
 23 24  1  0
 24 25  2  0
 25 26  1  0
 26 27  2  0
 20  2  1  0
 27 22  1  0
 17  6  2  0
 14  8  1  0
  1 28  1  0
  1 29  1  0
  1 30  1  0
  3 31  1  0
  4 32  1  0
  9 33  1  0
 10 34  1  0
 11 35  1  0
 13 36  1  0
 18 37  1  0
 19 38  1  0
 21 39  1  0
 21 40  1  0
 23 41  1  0
 24 42  1  0
 25 43  1  0
 26 44  1  0
 27 45  1  0
M  END
>  <meeko>  (3) 
{"is_sidechain": [false], "free_energy": -8.664, "intermolecular_energy": -11.349, "internal_energy": 0.09}

$$$$
cand_001_out
     RDKit          3D

 45 48  0  0  0  0  0  0  0  0999 V2000
   73.0230   45.5570   -5.8680 C   0  0  0  0  0  0  0  0  0  0  0  0
   72.8460   44.3600   -4.9760 C   0  0  0  0  0  0  0  0  0  0  0  0
   72.4370   44.5640   -3.6490 C   0  0  0  0  0  0  0  0  0  0  0  0
   72.2280   43.4860   -2.7860 C   0  0  0  0  0  0  0  0  0  0  0  0
   72.4090   42.1710   -3.2290 C   0  0  0  0  0  0  0  0  0  0  0  0
   72.1960   41.0440   -2.2970 C   0  0  0  0  0  0  0  0  0  0  0  0
   70.8620   40.8880   -1.9330 O   0  0  0  0  0  0  0  0  0  0  0  0
   70.5240   39.8760   -1.0710 C   0  0  0  0  0  0  0  0  0  0  0  0
   69.1780   39.7650   -0.7210 C   0  0  0  0  0  0  0  0  0  0  0  0
   68.7660   38.7550    0.1500 C   0  0  0  0  0  0  0  0  0  0  0  0
   69.6990   37.8570    0.6720 C   0  0  0  0  0  0  0  0  0  0  0  0
   71.0420   37.9690    0.3210 C   0  0  0  0  0  0  0  0  0  0  0  0
   71.9010   37.0560    0.8680 O   0  0  0  0  0  0  0  0  0  0  0  0
   71.4540   38.9810   -0.5510 C   0  0  0  0  0  0  0  0  0  0  0  0
   72.8550   39.1340   -0.9450 C   0  0  0  0  0  0  0  0  0  0  0  0
   73.7340   38.3790   -0.5350 O   0  0  0  0  0  0  0  0  0  0  0  0
   73.1890   40.2430   -1.8690 C   0  0  0  0  0  0  0  0  0  0  0  0
   74.5140   40.3710   -2.2450 O   0  0  0  0  0  0  0  0  0  0  0  0
   72.8210   41.9660   -4.5520 C   0  0  0  0  0  0  0  0  0  0  0  0
   73.0340   43.0420   -5.4400 C   0  0  0  0  0  0  0  0  0  0  0  0
   73.4460   42.7270   -6.8670 C   0  0  0  0  0  0  0  0  0  0  0  0
   74.9120   42.9400   -7.1710 C   0  0  0  0  0  0  0  0  0  0  0  0
   75.2980   43.8090   -8.2040 C   0  0  0  0  0  0  0  0  0  0  0  0
   76.6500   44.0310   -8.4780 C   0  0  0  0  0  0  0  0  0  0  0  0
   77.6300   43.3950   -7.7200 C   0  0  0  0  0  0  0  0  0  0  0  0
   77.2610   42.5390   -6.6840 C   0  0  0  0  0  0  0  0  0  0  0  0
   75.9110   42.3170   -6.4080 C   0  0  0  0  0  0  0  0  0  0  0  0
   73.1562   46.4577   -5.2508 H   0  0  0  0  0  0  0  0  0  0  0  0
   73.9097   45.4132   -6.5030 H   0  0  0  0  0  0  0  0  0  0  0  0
   72.1327   45.6760   -6.5030 H   0  0  0  0  0  0  0  0  0  0  0  0
   72.2785   45.5891   -3.2829 H   0  0  0  0  0  0  0  0  0  0  0  0
   71.9179   43.6726   -1.7472 H   0  0  0  0  0  0  0  0  0  0  0  0
   68.4423   40.4726   -1.1310 H   0  0  0  0  0  0  0  0  0  0  0  0
   67.7047   38.6665    0.4255 H   0  0  0  0  0  0  0  0  0  0  0  0
   69.3738   37.0623    1.3595 H   0  0  0  0  0  0  0  0  0  0  0  0
   72.3580   36.4540    0.3150 H   0  0  0  0  0  0  0  0  0  0  0  0
   75.1080   39.6570   -2.1170 H   0  0  0  0  0  0  0  0  0  0  0  0
   72.9830   40.9381   -4.9086 H   0  0  0  0  0  0  0  0  0  0  0  0
   73.2059   41.6722   -7.0665 H   0  0  0  0  0  0  0  0  0  0  0  0
   72.8939   43.4296   -7.5085 H   0  0  0  0  0  0  0  0  0  0  0  0
   74.5293   44.3195   -8.8028 H   0  0  0  0  0  0  0  0  0  0  0  0
   76.9408   44.7092   -9.2938 H   0  0  0  0  0  0  0  0  0  0  0  0
   78.6940   43.5681   -7.9387 H   0  0  0  0  0  0  0  0  0  0  0  0
   78.0344   42.0379   -6.0833 H   0  0  0  0  0  0  0  0  0  0  0  0
   75.6273   41.6464   -5.5835 H   0  0  0  0  0  0  0  0  0  0  0  0
  1  2  1  0
  2  3  2  0
  3  4  1  0
  4  5  2  0
  5  6  1  0
  6  7  1  0
  7  8  1  0
  8  9  2  0
  9 10  1  0
 10 11  2  0
 11 12  1  0
 12 13  1  0
 12 14  2  0
 14 15  1  0
 15 16  2  0
 15 17  1  0
 17 18  1  0
  5 19  1  0
 19 20  2  0
 20 21  1  0
 21 22  1  0
 22 23  2  0
 23 24  1  0
 24 25  2  0
 25 26  1  0
 26 27  2  0
 20  2  1  0
 27 22  1  0
 17  6  2  0
 14  8  1  0
  1 28  1  0
  1 29  1  0
  1 30  1  0
  3 31  1  0
  4 32  1  0
  9 33  1  0
 10 34  1  0
 11 35  1  0
 13 36  1  0
 18 37  1  0
 19 38  1  0
 21 39  1  0
 21 40  1  0
 23 41  1  0
 24 42  1  0
 25 43  1  0
 26 44  1  0
 27 45  1  0
M  END
>  <meeko>  (4) 
{"is_sidechain": [false], "free_energy": -8.626, "intermolecular_energy": -10.334, "internal_energy": -0.878}

$$$$
cand_001_out
     RDKit          3D

 45 48  0  0  0  0  0  0  0  0999 V2000
   68.5040   40.5470   -1.6600 C   0  0  0  0  0  0  0  0  0  0  0  0
   69.8390   40.8650   -2.2760 C   0  0  0  0  0  0  0  0  0  0  0  0
   69.8880   41.2010   -3.6370 C   0  0  0  0  0  0  0  0  0  0  0  0
   71.0980   41.5350   -4.2530 C   0  0  0  0  0  0  0  0  0  0  0  0
   72.2900   41.5540   -3.5220 C   0  0  0  0  0  0  0  0  0  0  0  0
   73.5620   41.8950   -4.1940 C   0  0  0  0  0  0  0  0  0  0  0  0
   73.3740   42.4320   -5.4630 O   0  0  0  0  0  0  0  0  0  0  0  0
   74.4740   42.7940   -6.1980 C   0  0  0  0  0  0  0  0  0  0  0  0
   74.2420   43.3140   -7.4720 C   0  0  0  0  0  0  0  0  0  0  0  0
   75.3170   43.7050   -8.2720 C   0  0  0  0  0  0  0  0  0  0  0  0
   76.6240   43.5750   -7.8000 C   0  0  0  0  0  0  0  0  0  0  0  0
   76.8540   43.0560   -6.5280 C   0  0  0  0  0  0  0  0  0  0  0  0
   78.1580   42.9570   -6.1280 O   0  0  0  0  0  0  0  0  0  0  0  0
   75.7770   42.6650   -5.7280 C   0  0  0  0  0  0  0  0  0  0  0  0
   75.9750   42.1150   -4.3860 C   0  0  0  0  0  0  0  0  0  0  0  0
   77.0940   41.9770   -3.8970 O   0  0  0  0  0  0  0  0  0  0  0  0
   74.7670   41.7230   -3.6220 C   0  0  0  0  0  0  0  0  0  0  0  0
   74.9650   41.2170   -2.3500 O   0  0  0  0  0  0  0  0  0  0  0  0
   72.2420   41.2130   -2.1640 C   0  0  0  0  0  0  0  0  0  0  0  0
   71.0310   40.8780   -1.5230 C   0  0  0  0  0  0  0  0  0  0  0  0
   71.0660   40.5560   -0.0390 C   0  0  0  0  0  0  0  0  0  0  0  0
   71.2470   39.0910    0.2940 C   0  0  0  0  0  0  0  0  0  0  0  0
   70.2120   38.3790    0.9190 C   0  0  0  0  0  0  0  0  0  0  0  0
   70.3590   37.0200    1.2100 C   0  0  0  0  0  0  0  0  0  0  0  0
   71.5360   36.3580    0.8730 C   0  0  0  0  0  0  0  0  0  0  0  0
   72.5670   37.0500    0.2410 C   0  0  0  0  0  0  0  0  0  0  0  0
   72.4220   38.4070   -0.0520 C   0  0  0  0  0  0  0  0  0  0  0  0
   68.5917   40.5679   -0.5637 H   0  0  0  0  0  0  0  0  0  0  0  0
   67.7639   41.2940   -1.9829 H   0  0  0  0  0  0  0  0  0  0  0  0
   68.1801   39.5466   -1.9829 H   0  0  0  0  0  0  0  0  0  0  0  0
   68.9606   41.2017   -4.2286 H   0  0  0  0  0  0  0  0  0  0  0  0
   71.1124   41.7855   -5.3240 H   0  0  0  0  0  0  0  0  0  0  0  0
   73.2124   43.4157   -7.8457 H   0  0  0  0  0  0  0  0  0  0  0  0
   75.1338   44.1161   -9.2757 H   0  0  0  0  0  0  0  0  0  0  0  0
   77.4709   43.8818   -8.4313 H   0  0  0  0  0  0  0  0  0  0  0  0
   78.8020   42.6050   -6.7100 H   0  0  0  0  0  0  0  0  0  0  0  0
   75.4670   40.4350   -2.2300 H   0  0  0  0  0  0  0  0  0  0  0  0
   73.1749   41.2063   -1.5812 H   0  0  0  0  0  0  0  0  0  0  0  0
   71.9002   41.1138    0.4115 H   0  0  0  0  0  0  0  0  0  0  0  0
   70.0821   40.8426    0.3608 H   0  0  0  0  0  0  0  0  0  0  0  0
   69.2768   38.8949    1.1822 H   0  0  0  0  0  0  0  0  0  0  0  0
   69.5436   36.4730    1.7059 H   0  0  0  0  0  0  0  0  0  0  0  0
   71.6522   35.2891    1.1055 H   0  0  0  0  0  0  0  0  0  0  0  0
   73.4964   36.5263   -0.0274 H   0  0  0  0  0  0  0  0  0  0  0  0
   73.2366   38.9451   -0.5589 H   0  0  0  0  0  0  0  0  0  0  0  0
  1  2  1  0
  2  3  2  0
  3  4  1  0
  4  5  2  0
  5  6  1  0
  6  7  1  0
  7  8  1  0
  8  9  2  0
  9 10  1  0
 10 11  2  0
 11 12  1  0
 12 13  1  0
 12 14  2  0
 14 15  1  0
 15 16  2  0
 15 17  1  0
 17 18  1  0
  5 19  1  0
 19 20  2  0
 20 21  1  0
 21 22  1  0
 22 23  2  0
 23 24  1  0
 24 25  2  0
 25 26  1  0
 26 27  2  0
 20  2  1  0
 27 22  1  0
 17  6  2  0
 14  8  1  0
  1 28  1  0
  1 29  1  0
  1 30  1  0
  3 31  1  0
  4 32  1  0
  9 33  1  0
 10 34  1  0
 11 35  1  0
 13 36  1  0
 18 37  1  0
 19 38  1  0
 21 39  1  0
 21 40  1  0
 23 41  1  0
 24 42  1  0
 25 43  1  0
 26 44  1  0
 27 45  1  0
M  END
>  <meeko>  (5) 
{"is_sidechain": [false], "free_energy": -8.41, "intermolecular_energy": -10.578, "internal_energy": -0.368}

$$$$
cand_001_out
     RDKit          3D

 45 48  0  0  0  0  0  0  0  0999 V2000
   74.4790   41.1840   -2.1870 C   0  0  0  0  0  0  0  0  0  0  0  0
   73.0830   41.6530   -2.4890 C   0  0  0  0  0  0  0  0  0  0  0  0
   72.8450   43.0320   -2.5960 C   0  0  0  0  0  0  0  0  0  0  0  0
   71.5740   43.5220   -2.9050 C   0  0  0  0  0  0  0  0  0  0  0  0
   70.5060   42.6470   -3.1280 C   0  0  0  0  0  0  0  0  0  0  0  0
   69.1650   43.1840   -3.4390 C   0  0  0  0  0  0  0  0  0  0  0  0
   68.3760   43.3560   -2.3070 O   0  0  0  0  0  0  0  0  0  0  0  0
   67.1040   43.8490   -2.4540 C   0  0  0  0  0  0  0  0  0  0  0  0
   66.3410   43.9910   -1.2940 C   0  0  0  0  0  0  0  0  0  0  0  0
   65.0400   44.4900   -1.3730 C   0  0  0  0  0  0  0  0  0  0  0  0
   64.5010   44.8470   -2.6100 C   0  0  0  0  0  0  0  0  0  0  0  0
   65.2630   44.7040   -3.7660 C   0  0  0  0  0  0  0  0  0  0  0  0
   64.6740   45.0730   -4.9440 O   0  0  0  0  0  0  0  0  0  0  0  0
   66.5660   44.2040   -3.6870 C   0  0  0  0  0  0  0  0  0  0  0  0
   67.4010   44.0390   -4.8780 C   0  0  0  0  0  0  0  0  0  0  0  0
   67.0010   44.3380   -6.0010 O   0  0  0  0  0  0  0  0  0  0  0  0
   68.7660   43.4940   -4.6860 C   0  0  0  0  0  0  0  0  0  0  0  0
   69.5510   43.3540   -5.8170 O   0  0  0  0  0  0  0  0  0  0  0  0
   70.7410   41.2700   -3.0160 C   0  0  0  0  0  0  0  0  0  0  0  0
   72.0180   40.7560   -2.7100 C   0  0  0  0  0  0  0  0  0  0  0  0
   72.1910   39.2490   -2.6450 C   0  0  0  0  0  0  0  0  0  0  0  0
   71.7430   38.6090   -1.3490 C   0  0  0  0  0  0  0  0  0  0  0  0
   72.5540   37.6530   -0.7170 C   0  0  0  0  0  0  0  0  0  0  0  0
   72.1610   37.0740    0.4910 C   0  0  0  0  0  0  0  0  0  0  0  0
   70.9590   37.4470    1.0860 C   0  0  0  0  0  0  0  0  0  0  0  0
   70.1500   38.4040    0.4770 C   0  0  0  0  0  0  0  0  0  0  0  0
   70.5410   38.9850   -0.7300 C   0  0  0  0  0  0  0  0  0  0  0  0
   74.6220   41.1360   -1.0974 H   0  0  0  0  0  0  0  0  0  0  0  0
   74.6322   40.1850   -2.6213 H   0  0  0  0  0  0  0  0  0  0  0  0
   75.2043   41.8878   -2.6213 H   0  0  0  0  0  0  0  0  0  0  0  0
   73.6726   43.7382   -2.4339 H   0  0  0  0  0  0  0  0  0  0  0  0
   71.4113   44.6077   -2.9737 H   0  0  0  0  0  0  0  0  0  0  0  0
   66.7646   43.7099   -0.3185 H   0  0  0  0  0  0  0  0  0  0  0  0
   64.4384   44.6021   -0.4589 H   0  0  0  0  0  0  0  0  0  0  0  0
   63.4757   45.2407   -2.6712 H   0  0  0  0  0  0  0  0  0  0  0  0
   63.7530   44.9510   -5.0660 H   0  0  0  0  0  0  0  0  0  0  0  0
   70.4640   43.5590   -5.7810 H   0  0  0  0  0  0  0  0  0  0  0  0
   69.9062   40.5707   -3.1711 H   0  0  0  0  0  0  0  0  0  0  0  0
   71.6088   38.8030   -3.4649 H   0  0  0  0  0  0  0  0  0  0  0  0
   73.2718   39.0600   -2.7236 H   0  0  0  0  0  0  0  0  0  0  0  0
   73.5080   37.3574   -1.1780 H   0  0  0  0  0  0  0  0  0  0  0  0
   72.8023   36.3217    0.9735 H   0  0  0  0  0  0  0  0  0  0  0  0
   70.6484   36.9868    2.0356 H   0  0  0  0  0  0  0  0  0  0  0  0
   69.2018   38.7020    0.9483 H   0  0  0  0  0  0  0  0  0  0  0  0
   69.9006   39.7453   -1.2010 H   0  0  0  0  0  0  0  0  0  0  0  0
  1  2  1  0
  2  3  2  0
  3  4  1  0
  4  5  2  0
  5  6  1  0
  6  7  1  0
  7  8  1  0
  8  9  2  0
  9 10  1  0
 10 11  2  0
 11 12  1  0
 12 13  1  0
 12 14  2  0
 14 15  1  0
 15 16  2  0
 15 17  1  0
 17 18  1  0
  5 19  1  0
 19 20  2  0
 20 21  1  0
 21 22  1  0
 22 23  2  0
 23 24  1  0
 24 25  2  0
 25 26  1  0
 26 27  2  0
 20  2  1  0
 27 22  1  0
 17  6  2  0
 14  8  1  0
  1 28  1  0
  1 29  1  0
  1 30  1  0
  3 31  1  0
  4 32  1  0
  9 33  1  0
 10 34  1  0
 11 35  1  0
 13 36  1  0
 18 37  1  0
 19 38  1  0
 21 39  1  0
 21 40  1  0
 23 41  1  0
 24 42  1  0
 25 43  1  0
 26 44  1  0
 27 45  1  0
M  END
>  <meeko>  (6) 
{"is_sidechain": [false], "free_energy": -8.344, "intermolecular_energy": -10.057, "internal_energy": -0.807}

$$$$
cand_001_out
     RDKit          3D

 45 48  0  0  0  0  0  0  0  0999 V2000
   77.1640   43.5500   -3.0870 C   0  0  0  0  0  0  0  0  0  0  0  0
   75.7500   43.0530   -2.9570 C   0  0  0  0  0  0  0  0  0  0  0  0
   75.5130   41.8890   -2.2100 C   0  0  0  0  0  0  0  0  0  0  0  0
   74.2160   41.4000   -2.0310 C   0  0  0  0  0  0  0  0  0  0  0  0
   73.1190   42.0680   -2.5830 C   0  0  0  0  0  0  0  0  0  0  0  0
   71.7560   41.5280   -2.3950 C   0  0  0  0  0  0  0  0  0  0  0  0
   71.6390   40.7450   -1.2520 O   0  0  0  0  0  0  0  0  0  0  0  0
   70.4230   40.1800   -0.9570 C   0  0  0  0  0  0  0  0  0  0  0  0
   70.3540   39.3900    0.1910 C   0  0  0  0  0  0  0  0  0  0  0  0
   69.1470   38.7880    0.5500 C   0  0  0  0  0  0  0  0  0  0  0  0
   68.0090   38.9760   -0.2380 C   0  0  0  0  0  0  0  0  0  0  0  0
   68.0810   39.7660   -1.3820 C   0  0  0  0  0  0  0  0  0  0  0  0
   66.9290   39.9090   -2.1070 O   0  0  0  0  0  0  0  0  0  0  0  0
   69.2900   40.3680   -1.7410 C   0  0  0  0  0  0  0  0  0  0  0  0
   69.4080   41.2050   -2.9360 C   0  0  0  0  0  0  0  0  0  0  0  0
   68.4510   41.4250   -3.6750 O   0  0  0  0  0  0  0  0  0  0  0  0
   70.7370   41.7910   -3.2320 C   0  0  0  0  0  0  0  0  0  0  0  0
   70.8340   42.5910   -4.3570 O   0  0  0  0  0  0  0  0  0  0  0  0
   73.3550   43.2280   -3.3330 C   0  0  0  0  0  0  0  0  0  0  0  0
   74.6560   43.7400   -3.5210 C   0  0  0  0  0  0  0  0  0  0  0  0
   74.8170   45.0220   -4.3180 C   0  0  0  0  0  0  0  0  0  0  0  0
   74.6100   46.2960   -3.5280 C   0  0  0  0  0  0  0  0  0  0  0  0
   75.7060   46.9460   -2.9400 C   0  0  0  0  0  0  0  0  0  0  0  0
   75.5300   48.1360   -2.2290 C   0  0  0  0  0  0  0  0  0  0  0  0
   74.2600   48.6930   -2.1050 C   0  0  0  0  0  0  0  0  0  0  0  0
   73.1650   48.0650   -2.6950 C   0  0  0  0  0  0  0  0  0  0  0  0
   73.3390   46.8770   -3.4060 C   0  0  0  0  0  0  0  0  0  0  0  0
   77.5932   43.7008   -2.0855 H   0  0  0  0  0  0  0  0  0  0  0  0
   77.7642   42.8089   -3.6353 H   0  0  0  0  0  0  0  0  0  0  0  0
   77.1685   44.5036   -3.6353 H   0  0  0  0  0  0  0  0  0  0  0  0
   76.3610   41.3532   -1.7584 H   0  0  0  0  0  0  0  0  0  0  0  0
   74.0567   40.4799   -1.4497 H   0  0  0  0  0  0  0  0  0  0  0  0
   71.2496   39.2418    0.8123 H   0  0  0  0  0  0  0  0  0  0  0  0
   69.0918   38.1647    1.4547 H   0  0  0  0  0  0  0  0  0  0  0  0
   67.0581   38.5009    0.0448 H   0  0  0  0  0  0  0  0  0  0  0  0
   66.1770   40.3080   -1.7170 H   0  0  0  0  0  0  0  0  0  0  0  0
   71.5440   42.4730   -4.9560 H   0  0  0  0  0  0  0  0  0  0  0  0
   72.5024   43.7537   -3.7876 H   0  0  0  0  0  0  0  0  0  0  0  0
   75.8353   45.0398   -4.7337 H   0  0  0  0  0  0  0  0  0  0  0  0
   74.0314   45.0063   -5.0878 H   0  0  0  0  0  0  0  0  0  0  0  0
   76.7130   46.5147   -3.0397 H   0  0  0  0  0  0  0  0  0  0  0  0
   76.3956   48.6332   -1.7669 H   0  0  0  0  0  0  0  0  0  0  0  0
   74.1212   49.6277   -1.5419 H   0  0  0  0  0  0  0  0  0  0  0  0
   72.1619   48.5064   -2.6001 H   0  0  0  0  0  0  0  0  0  0  0  0
   72.4709   46.3912   -3.8755 H   0  0  0  0  0  0  0  0  0  0  0  0
  1  2  1  0
  2  3  2  0
  3  4  1  0
  4  5  2  0
  5  6  1  0
  6  7  1  0
  7  8  1  0
  8  9  2  0
  9 10  1  0
 10 11  2  0
 11 12  1  0
 12 13  1  0
 12 14  2  0
 14 15  1  0
 15 16  2  0
 15 17  1  0
 17 18  1  0
  5 19  1  0
 19 20  2  0
 20 21  1  0
 21 22  1  0
 22 23  2  0
 23 24  1  0
 24 25  2  0
 25 26  1  0
 26 27  2  0
 20  2  1  0
 27 22  1  0
 17  6  2  0
 14  8  1  0
  1 28  1  0
  1 29  1  0
  1 30  1  0
  3 31  1  0
  4 32  1  0
  9 33  1  0
 10 34  1  0
 11 35  1  0
 13 36  1  0
 18 37  1  0
 19 38  1  0
 21 39  1  0
 21 40  1  0
 23 41  1  0
 24 42  1  0
 25 43  1  0
 26 44  1  0
 27 45  1  0
M  END
>  <meeko>  (7) 
{"is_sidechain": [false], "free_energy": -8.277, "intermolecular_energy": -10.283, "internal_energy": -0.499}

$$$$
cand_001_out
     RDKit          3D

 45 48  0  0  0  0  0  0  0  0999 V2000
   71.3530   45.3080   -5.5820 C   0  0  0  0  0  0  0  0  0  0  0  0
   71.2020   44.1750   -4.6040 C   0  0  0  0  0  0  0  0  0  0  0  0
   70.1470   43.2670   -4.7850 C   0  0  0  0  0  0  0  0  0  0  0  0
   69.9790   42.1790   -3.9240 C   0  0  0  0  0  0  0  0  0  0  0  0
   70.8670   41.9610   -2.8660 C   0  0  0  0  0  0  0  0  0  0  0  0
   70.6640   40.8130   -1.9570 C   0  0  0  0  0  0  0  0  0  0  0  0
   71.8290   40.0850   -1.7390 O   0  0  0  0  0  0  0  0  0  0  0  0
   71.7810   38.9910   -0.9130 C   0  0  0  0  0  0  0  0  0  0  0  0
   72.9690   38.2800   -0.7340 C   0  0  0  0  0  0  0  0  0  0  0  0
   72.9900   37.1580    0.0960 C   0  0  0  0  0  0  0  0  0  0  0  0
   71.8260   36.7460    0.7460 C   0  0  0  0  0  0  0  0  0  0  0  0
   70.6420   37.4560    0.5660 C   0  0  0  0  0  0  0  0  0  0  0  0
   69.5390   36.9980    1.2330 O   0  0  0  0  0  0  0  0  0  0  0  0
   70.6210   38.5800   -0.2650 C   0  0  0  0  0  0  0  0  0  0  0  0
   69.3980   39.3540   -0.4810 C   0  0  0  0  0  0  0  0  0  0  0  0
   68.3350   39.0600    0.0610 O   0  0  0  0  0  0  0  0  0  0  0  0
   69.4800   40.5240   -1.3880 C   0  0  0  0  0  0  0  0  0  0  0  0
   68.3220   41.2570   -1.5740 O   0  0  0  0  0  0  0  0  0  0  0  0
   71.9170   42.8700   -2.6820 C   0  0  0  0  0  0  0  0  0  0  0  0
   72.1070   43.9720   -3.5430 C   0  0  0  0  0  0  0  0  0  0  0  0
   73.2920   44.8860   -3.2910 C   0  0  0  0  0  0  0  0  0  0  0  0
   74.6450   44.2760   -3.5860 C   0  0  0  0  0  0  0  0  0  0  0  0
   75.4220   43.7470   -2.5440 C   0  0  0  0  0  0  0  0  0  0  0  0
   76.6620   43.1600   -2.8080 C   0  0  0  0  0  0  0  0  0  0  0  0
   77.1360   43.0880   -4.1160 C   0  0  0  0  0  0  0  0  0  0  0  0
   76.3690   43.5980   -5.1610 C   0  0  0  0  0  0  0  0  0  0  0  0
   75.1290   44.1840   -4.9000 C   0  0  0  0  0  0  0  0  0  0  0  0
   71.4789   46.2525   -5.0324 H   0  0  0  0  0  0  0  0  0  0  0  0
   72.2355   45.1313   -6.2144 H   0  0  0  0  0  0  0  0  0  0  0  0
   70.4550   45.3686   -6.2144 H   0  0  0  0  0  0  0  0  0  0  0  0
   69.4422   43.4139   -5.6166 H   0  0  0  0  0  0  0  0  0  0  0  0
   69.1388   41.4864   -4.0803 H   0  0  0  0  0  0  0  0  0  0  0  0
   73.8871   38.6035   -1.2463 H   0  0  0  0  0  0  0  0  0  0  0  0
   73.9258   36.5975    0.2380 H   0  0  0  0  0  0  0  0  0  0  0  0
   71.8438   35.8615    1.3997 H   0  0  0  0  0  0  0  0  0  0  0  0
   68.7610   36.7830    0.7590 H   0  0  0  0  0  0  0  0  0  0  0  0
   68.2490   42.1180   -1.2130 H   0  0  0  0  0  0  0  0  0  0  0  0
   72.6127   42.7207   -1.8431 H   0  0  0  0  0  0  0  0  0  0  0  0
   73.1750   45.7784   -3.9233 H   0  0  0  0  0  0  0  0  0  0  0  0
   73.2840   45.1094   -2.2139 H   0  0  0  0  0  0  0  0  0  0  0  0
   75.0512   43.7950   -1.5095 H   0  0  0  0  0  0  0  0  0  0  0  0
   77.2647   42.7542   -1.9821 H   0  0  0  0  0  0  0  0  0  0  0  0
   78.1141   42.6293   -4.3232 H   0  0  0  0  0  0  0  0  0  0  0  0
   76.7413   43.5389   -6.1944 H   0  0  0  0  0  0  0  0  0  0  0  0
   74.5260   44.5771   -5.7318 H   0  0  0  0  0  0  0  0  0  0  0  0
  1  2  1  0
  2  3  2  0
  3  4  1  0
  4  5  2  0
  5  6  1  0
  6  7  1  0
  7  8  1  0
  8  9  2  0
  9 10  1  0
 10 11  2  0
 11 12  1  0
 12 13  1  0
 12 14  2  0
 14 15  1  0
 15 16  2  0
 15 17  1  0
 17 18  1  0
  5 19  1  0
 19 20  2  0
 20 21  1  0
 21 22  1  0
 22 23  2  0
 23 24  1  0
 24 25  2  0
 25 26  1  0
 26 27  2  0
 20  2  1  0
 27 22  1  0
 17  6  2  0
 14  8  1  0
  1 28  1  0
  1 29  1  0
  1 30  1  0
  3 31  1  0
  4 32  1  0
  9 33  1  0
 10 34  1  0
 11 35  1  0
 13 36  1  0
 18 37  1  0
 19 38  1  0
 21 39  1  0
 21 40  1  0
 23 41  1  0
 24 42  1  0
 25 43  1  0
 26 44  1  0
 27 45  1  0
M  END
>  <meeko>  (8) 
{"is_sidechain": [false], "free_energy": -8.21, "intermolecular_energy": -9.909, "internal_energy": -0.79}

$$$$
cand_001_out
     RDKit          3D

 45 48  0  0  0  0  0  0  0  0999 V2000
   68.2860   40.8240   -2.3970 C   0  0  0  0  0  0  0  0  0  0  0  0
   69.6130   41.4560   -2.7200 C   0  0  0  0  0  0  0  0  0  0  0  0
   69.8210   41.9590   -4.0130 C   0  0  0  0  0  0  0  0  0  0  0  0
   71.0240   42.5830   -4.3570 C   0  0  0  0  0  0  0  0  0  0  0  0
   72.0460   42.7310   -3.4150 C   0  0  0  0  0  0  0  0  0  0  0  0
   73.3170   43.3810   -3.8020 C   0  0  0  0  0  0  0  0  0  0  0  0
   74.2580   42.4790   -4.2860 O   0  0  0  0  0  0  0  0  0  0  0  0
   75.4840   42.9510   -4.6830 C   0  0  0  0  0  0  0  0  0  0  0  0
   76.4040   42.0100   -5.1480 C   0  0  0  0  0  0  0  0  0  0  0  0
   77.6700   42.4230   -5.5690 C   0  0  0  0  0  0  0  0  0  0  0  0
   78.0150   43.7750   -5.5250 C   0  0  0  0  0  0  0  0  0  0  0  0
   77.0960   44.7120   -5.0610 C   0  0  0  0  0  0  0  0  0  0  0  0
   77.5000   46.0180   -5.0450 O   0  0  0  0  0  0  0  0  0  0  0  0
   75.8290   44.2980   -4.6390 C   0  0  0  0  0  0  0  0  0  0  0  0
   74.8330   45.2500   -4.1440 C   0  0  0  0  0  0  0  0  0  0  0  0
   75.0590   46.4560   -4.0830 O   0  0  0  0  0  0  0  0  0  0  0  0
   73.5230   44.7070   -3.7140 C   0  0  0  0  0  0  0  0  0  0  0  0
   72.5850   45.6170   -3.2610 O   0  0  0  0  0  0  0  0  0  0  0  0
   71.8410   42.2250   -2.1250 C   0  0  0  0  0  0  0  0  0  0  0  0
   70.6330   41.5960   -1.7570 C   0  0  0  0  0  0  0  0  0  0  0  0
   70.4820   41.1080   -0.3270 C   0  0  0  0  0  0  0  0  0  0  0  0
   70.9110   39.6760   -0.0910 C   0  0  0  0  0  0  0  0  0  0  0  0
   72.2690   39.3270   -0.1580 C   0  0  0  0  0  0  0  0  0  0  0  0
   72.6780   38.0140    0.0820 C   0  0  0  0  0  0  0  0  0  0  0  0
   71.7380   37.0360    0.3990 C   0  0  0  0  0  0  0  0  0  0  0  0
   70.3880   37.3720    0.4810 C   0  0  0  0  0  0  0  0  0  0  0  0
   69.9770   38.6840    0.2430 C   0  0  0  0  0  0  0  0  0  0  0  0
   68.1636   40.7657   -1.3054 H   0  0  0  0  0  0  0  0  0  0  0  0
   67.4760   41.4330   -2.8248 H   0  0  0  0  0  0  0  0  0  0  0  0
   68.2484   39.8113   -2.8248 H   0  0  0  0  0  0  0  0  0  0  0  0
   69.0262   41.8611   -4.7671 H   0  0  0  0  0  0  0  0  0  0  0  0
   71.1677   42.9615   -5.3798 H   0  0  0  0  0  0  0  0  0  0  0  0
   76.1323   40.9446   -5.1828 H   0  0  0  0  0  0  0  0  0  0  0  0
   78.3959   41.6823   -5.9356 H   0  0  0  0  0  0  0  0  0  0  0  0
   79.0123   44.0997   -5.8567 H   0  0  0  0  0  0  0  0  0  0  0  0
   78.0720   46.3240   -4.3700 H   0  0  0  0  0  0  0  0  0  0  0  0
   72.5190   45.8060   -2.3460 H   0  0  0  0  0  0  0  0  0  0  0  0
   72.6435   42.3207   -1.3788 H   0  0  0  0  0  0  0  0  0  0  0  0
   71.0891   41.7573    0.3210 H   0  0  0  0  0  0  0  0  0  0  0  0
   69.4063   41.1478   -0.1007 H   0  0  0  0  0  0  0  0  0  0  0  0
   73.0177   40.0951   -0.4018 H   0  0  0  0  0  0  0  0  0  0  0  0
   73.7444   37.7512    0.0207 H   0  0  0  0  0  0  0  0  0  0  0  0
   72.0606   36.0008    0.5842 H   0  0  0  0  0  0  0  0  0  0  0  0
   69.6449   36.6013    0.7339 H   0  0  0  0  0  0  0  0  0  0  0  0
   68.9105   38.9429    0.3180 H   0  0  0  0  0  0  0  0  0  0  0  0
  1  2  1  0
  2  3  2  0
  3  4  1  0
  4  5  2  0
  5  6  1  0
  6  7  1  0
  7  8  1  0
  8  9  2  0
  9 10  1  0
 10 11  2  0
 11 12  1  0
 12 13  1  0
 12 14  2  0
 14 15  1  0
 15 16  2  0
 15 17  1  0
 17 18  1  0
  5 19  1  0
 19 20  2  0
 20 21  1  0
 21 22  1  0
 22 23  2  0
 23 24  1  0
 24 25  2  0
 25 26  1  0
 26 27  2  0
 20  2  1  0
 27 22  1  0
 17  6  2  0
 14  8  1  0
  1 28  1  0
  1 29  1  0
  1 30  1  0
  3 31  1  0
  4 32  1  0
  9 33  1  0
 10 34  1  0
 11 35  1  0
 13 36  1  0
 18 37  1  0
 19 38  1  0
 21 39  1  0
 21 40  1  0
 23 41  1  0
 24 42  1  0
 25 43  1  0
 26 44  1  0
 27 45  1  0
M  END
>  <meeko>  (9) 
{"is_sidechain": [false], "free_energy": -8.182, "intermolecular_energy": -9.67, "internal_energy": -0.994}

$$$$
