cand_016_out
     RDKit          3D

 35 37  0  0  0  0  0  0  0  0999 V2000
   69.8260   38.9730    1.0720 C   0  0  0  0  0  0  0  0  0  0  0  0
   70.7820   39.0250   -0.0890 C   0  0  0  0  0  0  0  0  0  0  0  0
   70.7600   40.1470   -0.9380 C   0  0  0  0  0  0  0  0  0  0  0  0
   71.6320   40.2600   -2.0310 C   0  0  0  0  0  0  0  0  0  0  0  0
   71.6240   41.4460   -2.9120 C   0  0  0  0  0  0  0  0  0  0  0  0
   72.7340   42.2620   -2.7310 O   0  0  0  0  0  0  0  0  0  0  0  0
   72.8520   43.3990   -3.4880 C   0  0  0  0  0  0  0  0  0  0  0  0
   73.9740   44.1980   -3.2620 C   0  0  0  0  0  0  0  0  0  0  0  0
   74.1560   45.3700   -4.0000 C   0  0  0  0  0  0  0  0  0  0  0  0
   73.2170   45.7420   -4.9630 C   0  0  0  0  0  0  0  0  0  0  0  0
   72.0980   44.9440   -5.1870 C   0  0  0  0  0  0  0  0  0  0  0  0
   71.2190   45.3680   -6.1460 O   0  0  0  0  0  0  0  0  0  0  0  0
   71.9160   43.7720   -4.4480 C   0  0  0  0  0  0  0  0  0  0  0  0
   70.7550   42.9050   -4.6520 C   0  0  0  0  0  0  0  0  0  0  0  0
   69.8880   43.1610   -5.4860 O   0  0  0  0  0  0  0  0  0  0  0  0
   70.6510   41.6900   -3.8110 C   0  0  0  0  0  0  0  0  0  0  0  0
   69.5580   40.8710   -4.0200 O   0  0  0  0  0  0  0  0  0  0  0  0
   72.5550   39.2330   -2.2530 C   0  0  0  0  0  0  0  0  0  0  0  0
   72.5980   38.1170   -1.4130 C   0  0  0  0  0  0  0  0  0  0  0  0
   71.7220   38.0000   -0.3210 C   0  0  0  0  0  0  0  0  0  0  0  0
   71.7910   36.7690    0.5530 C   0  0  0  0  0  0  0  0  0  0  0  0
   70.6960   35.9620    0.4410 F   0  0  0  0  0  0  0  0  0  0  0  0
   72.8580   35.9710    0.2720 F   0  0  0  0  0  0  0  0  0  0  0  0
   70.3920   39.0038    2.0147 H   0  0  0  0  0  0  0  0  0  0  0  0
   69.1448   39.8354    1.0250 H   0  0  0  0  0  0  0  0  0  0  0  0
   69.2424   38.0418    1.0250 H   0  0  0  0  0  0  0  0  0  0  0  0
   70.0411   40.9556   -0.7396 H   0  0  0  0  0  0  0  0  0  0  0  0
   74.7145   43.9049   -2.5032 H   0  0  0  0  0  0  0  0  0  0  0  0
   75.0400   46.0000   -3.8220 H   0  0  0  0  0  0  0  0  0  0  0  0
   73.3606   46.6646   -5.5445 H   0  0  0  0  0  0  0  0  0  0  0  0
   71.5200   45.5340   -7.0170 H   0  0  0  0  0  0  0  0  0  0  0  0
   69.6440   40.1000   -4.5470 H   0  0  0  0  0  0  0  0  0  0  0  0
   73.2551   39.3045   -3.0984 H   0  0  0  0  0  0  0  0  0  0  0  0
   73.3285   37.3184   -1.6097 H   0  0  0  0  0  0  0  0  0  0  0  0
   71.8662   37.1927    1.5653 H   0  0  0  0  0  0  0  0  0  0  0  0
  1  2  1  0
  2  3  2  0
  3  4  1  0
  4  5  1  0
  5  6  1  0
  6  7  1  0
  7  8  2  0
  8  9  1  0
  9 10  2  0
 10 11  1  0
 11 12  1  0
 11 13  2  0
 13 14  1  0
 14 15  2  0
 14 16  1  0
 16 17  1  0
  4 18  2  0
 18 19  1  0
 19 20  2  0
 20 21  1  0
 21 22  1  0
 21 23  1  0
 20  2  1  0
 16  5  2  0
 13  7  1  0
  1 24  1  0
  1 25  1  0
  1 26  1  0
  3 27  1  0
  8 28  1  0
  9 29  1  0
 10 30  1  0
 12 31  1  0
 17 32  1  0
 18 33  1  0
 19 34  1  0
 21 35  1  0
M  END
>  <meeko>  (1) 
{"is_sidechain": [false], "free_energy": -7.996, "intermolecular_energy": -9.398, "internal_energy": -0.445}

$$$$
cand_016_out
     RDKit          3D

 35 37  0  0  0  0  0  0  0  0999 V2000
   69.0230   38.9400    0.1190 C   0  0  0  0  0  0  0  0  0  0  0  0
   70.4520   38.8310   -0.3370 C   0  0  0  0  0  0  0  0  0  0  0  0
   70.9580   39.7970   -1.2260 C   0  0  0  0  0  0  0  0  0  0  0  0
   72.2840   39.7560   -1.6800 C   0  0  0  0  0  0  0  0  0  0  0  0
   72.8240   40.7820   -2.5980 C   0  0  0  0  0  0  0  0  0  0  0  0
   73.9050   41.4730   -2.0610 O   0  0  0  0  0  0  0  0  0  0  0  0
   74.5020   42.4540   -2.8100 C   0  0  0  0  0  0  0  0  0  0  0  0
   75.5720   43.1330   -2.2260 C   0  0  0  0  0  0  0  0  0  0  0  0
   76.2260   44.1440   -2.9350 C   0  0  0  0  0  0  0  0  0  0  0  0
   75.8100   44.4750   -4.2260 C   0  0  0  0  0  0  0  0  0  0  0  0
   74.7410   43.7960   -4.8060 C   0  0  0  0  0  0  0  0  0  0  0  0
   74.3870   44.1700   -6.0720 O   0  0  0  0  0  0  0  0  0  0  0  0
   74.0870   42.7850   -4.0960 C   0  0  0  0  0  0  0  0  0  0  0  0
   72.9600   42.0480   -4.6690 C   0  0  0  0  0  0  0  0  0  0  0  0
   72.5400   42.2760   -5.8010 O   0  0  0  0  0  0  0  0  0  0  0  0
   72.3300   41.0010   -3.8310 C   0  0  0  0  0  0  0  0  0  0  0  0
   71.2750   40.3010   -4.3860 O   0  0  0  0  0  0  0  0  0  0  0  0
   73.1160   38.7350   -1.2110 C   0  0  0  0  0  0  0  0  0  0  0  0
   72.6330   37.7720   -0.3210 C   0  0  0  0  0  0  0  0  0  0  0  0
   71.3040   37.8090    0.1320 C   0  0  0  0  0  0  0  0  0  0  0  0
   70.8160   36.7400    1.0830 C   0  0  0  0  0  0  0  0  0  0  0  0
   70.3750   35.6130    0.4520 F   0  0  0  0  0  0  0  0  0  0  0  0
   71.7770   36.3160    1.9500 F   0  0  0  0  0  0  0  0  0  0  0  0
   68.9881   38.9427    1.2184 H   0  0  0  0  0  0  0  0  0  0  0  0
   68.5861   39.8741   -0.2640 H   0  0  0  0  0  0  0  0  0  0  0  0
   68.4495   38.0830   -0.2640 H   0  0  0  0  0  0  0  0  0  0  0  0
   70.2969   40.6045   -1.5735 H   0  0  0  0  0  0  0  0  0  0  0  0
   75.9002   42.8728   -1.2089 H   0  0  0  0  0  0  0  0  0  0  0  0
   77.0696   44.6798   -2.4754 H   0  0  0  0  0  0  0  0  0  0  0  0
   76.3255   45.2705   -4.7841 H   0  0  0  0  0  0  0  0  0  0  0  0
   74.3000   45.0790   -6.2860 H   0  0  0  0  0  0  0  0  0  0  0  0
   71.4080   39.7900   -5.1600 H   0  0  0  0  0  0  0  0  0  0  0  0
   74.1626   38.6892   -1.5464 H   0  0  0  0  0  0  0  0  0  0  0  0
   73.3033   36.9735    0.0299 H   0  0  0  0  0  0  0  0  0  0  0  0
   69.9932   37.2415    1.6136 H   0  0  0  0  0  0  0  0  0  0  0  0
  1  2  1  0
  2  3  2  0
  3  4  1  0
  4  5  1  0
  5  6  1  0
  6  7  1  0
  7  8  2  0
  8  9  1  0
  9 10  2  0
 10 11  1  0
 11 12  1  0
 11 13  2  0
 13 14  1  0
 14 15  2  0
 14 16  1  0
 16 17  1  0
  4 18  2  0
 18 19  1  0
 19 20  2  0
 20 21  1  0
 21 22  1  0
 21 23  1  0
 20  2  1  0
 16  5  2  0
 13  7  1  0
  1 24  1  0
  1 25  1  0
  1 26  1  0
  3 27  1  0
  8 28  1  0
  9 29  1  0
 10 30  1  0
 12 31  1  0
 17 32  1  0
 18 33  1  0
 19 34  1  0
 21 35  1  0
M  END
>  <meeko>  (2) 
{"is_sidechain": [false], "free_energy": -7.957, "intermolecular_energy": -9.412, "internal_energy": -0.385}

$$$$
cand_016_out
     RDKit          3D

 35 37  0  0  0  0  0  0  0  0999 V2000
   72.7480   37.6670   -0.2850 C   0  0  0  0  0  0  0  0  0  0  0  0
   71.5280   38.5180   -0.5100 C   0  0  0  0  0  0  0  0  0  0  0  0
   71.6070   39.5970   -1.4100 C   0  0  0  0  0  0  0  0  0  0  0  0
   70.5020   40.4210   -1.6680 C   0  0  0  0  0  0  0  0  0  0  0  0
   70.5770   41.5420   -2.6290 C   0  0  0  0  0  0  0  0  0  0  0  0
   71.7250   42.3100   -2.4760 O   0  0  0  0  0  0  0  0  0  0  0  0
   71.9200   43.3840   -3.3050 C   0  0  0  0  0  0  0  0  0  0  0  0
   73.0780   44.1370   -3.1060 C   0  0  0  0  0  0  0  0  0  0  0  0
   73.3380   45.2440   -3.9170 C   0  0  0  0  0  0  0  0  0  0  0  0
   72.4410   45.5980   -4.9260 C   0  0  0  0  0  0  0  0  0  0  0  0
   71.2860   44.8450   -5.1240 C   0  0  0  0  0  0  0  0  0  0  0  0
   70.4520   45.2460   -6.1300 O   0  0  0  0  0  0  0  0  0  0  0  0
   71.0260   43.7380   -4.3110 C   0  0  0  0  0  0  0  0  0  0  0  0
   69.8250   42.9210   -4.4850 C   0  0  0  0  0  0  0  0  0  0  0  0
   68.9910   43.1630   -5.3560 O   0  0  0  0  0  0  0  0  0  0  0  0
   69.6380   41.7740   -3.5660 C   0  0  0  0  0  0  0  0  0  0  0  0
   68.5070   41.0000   -3.7460 O   0  0  0  0  0  0  0  0  0  0  0  0
   69.2940   40.1350   -1.0250 C   0  0  0  0  0  0  0  0  0  0  0  0
   69.1950   39.0620   -0.1350 C   0  0  0  0  0  0  0  0  0  0  0  0
   70.3020   38.2380    0.1290 C   0  0  0  0  0  0  0  0  0  0  0  0
   70.1570   37.0970    1.1100 C   0  0  0  0  0  0  0  0  0  0  0  0
   70.5760   35.8970    0.6120 F   0  0  0  0  0  0  0  0  0  0  0  0
   70.8690   37.2820    2.2560 F   0  0  0  0  0  0  0  0  0  0  0  0
   72.9181   37.5483    0.7953 H   0  0  0  0  0  0  0  0  0  0  0  0
   72.5951   36.6786   -0.7429 H   0  0  0  0  0  0  0  0  0  0  0  0
   73.6228   38.1519   -0.7429 H   0  0  0  0  0  0  0  0  0  0  0  0
   72.5586   39.7989   -1.9235 H   0  0  0  0  0  0  0  0  0  0  0  0
   73.7855   43.8589   -2.3110 H   0  0  0  0  0  0  0  0  0  0  0  0
   74.2508   45.8375   -3.7603 H   0  0  0  0  0  0  0  0  0  0  0  0
   72.6459   46.4704   -5.5639 H   0  0  0  0  0  0  0  0  0  0  0  0
   70.5040   46.1210   -6.4620 H   0  0  0  0  0  0  0  0  0  0  0  0
   67.9090   41.1990   -4.4400 H   0  0  0  0  0  0  0  0  0  0  0  0
   68.4115   40.7615   -1.2218 H   0  0  0  0  0  0  0  0  0  0  0  0
   68.2368   38.8597    0.3659 H   0  0  0  0  0  0  0  0  0  0  0  0
   69.0756   37.0835    1.3112 H   0  0  0  0  0  0  0  0  0  0  0  0
  1  2  1  0
  2  3  2  0
  3  4  1  0
  4  5  1  0
  5  6  1  0
  6  7  1  0
  7  8  2  0
  8  9  1  0
  9 10  2  0
 10 11  1  0
 11 12  1  0
 11 13  2  0
 13 14  1  0
 14 15  2  0
 14 16  1  0
 16 17  1  0
  4 18  2  0
 18 19  1  0
 19 20  2  0
 20 21  1  0
 21 22  1  0
 21 23  1  0
 20  2  1  0
 16  5  2  0
 13  7  1  0
  1 24  1  0
  1 25  1  0
  1 26  1  0
  3 27  1  0
  8 28  1  0
  9 29  1  0
 10 30  1  0
 12 31  1  0
 17 32  1  0
 18 33  1  0
 19 34  1  0
 21 35  1  0
M  END
>  <meeko>  (3) 
{"is_sidechain": [false], "free_energy": -7.816, "intermolecular_energy": -9.66, "internal_energy": 0.029}

$$$$
cand_016_out
     RDKit          3D

 35 37  0  0  0  0  0  0  0  0999 V2000
   72.9610   39.3080   -0.2690 C   0  0  0  0  0  0  0  0  0  0  0  0
   71.4590   39.3050   -0.3650 C   0  0  0  0  0  0  0  0  0  0  0  0
   70.8210   40.3390   -1.0750 C   0  0  0  0  0  0  0  0  0  0  0  0
   69.4260   40.3870   -1.2090 C   0  0  0  0  0  0  0  0  0  0  0  0
   68.7540   41.4600   -1.9720 C   0  0  0  0  0  0  0  0  0  0  0  0
   67.8520   42.1860   -1.2030 O   0  0  0  0  0  0  0  0  0  0  0  0
   67.1590   43.2140   -1.7890 C   0  0  0  0  0  0  0  0  0  0  0  0
   66.2510   43.9060   -0.9860 C   0  0  0  0  0  0  0  0  0  0  0  0
   65.5130   44.9650   -1.5200 C   0  0  0  0  0  0  0  0  0  0  0  0
   65.6830   45.3310   -2.8560 C   0  0  0  0  0  0  0  0  0  0  0  0
   66.5890   44.6400   -3.6560 C   0  0  0  0  0  0  0  0  0  0  0  0
   66.7060   45.0530   -4.9550 O   0  0  0  0  0  0  0  0  0  0  0  0
   67.3270   43.5800   -3.1210 C   0  0  0  0  0  0  0  0  0  0  0  0
   68.2890   42.8270   -3.9270 C   0  0  0  0  0  0  0  0  0  0  0  0
   68.5000   43.0950   -5.1090 O   0  0  0  0  0  0  0  0  0  0  0  0
   69.0140   41.7160   -3.2680 C   0  0  0  0  0  0  0  0  0  0  0  0
   69.9300   41.0200   -4.0340 O   0  0  0  0  0  0  0  0  0  0  0  0
   68.6680   39.3610   -0.6350 C   0  0  0  0  0  0  0  0  0  0  0  0
   69.2860   38.3220    0.0650 C   0  0  0  0  0  0  0  0  0  0  0  0
   70.6820   38.2750    0.2040 C   0  0  0  0  0  0  0  0  0  0  0  0
   71.3110   37.1410    0.9830 C   0  0  0  0  0  0  0  0  0  0  0  0
   70.3980   36.3300    1.5920 F   0  0  0  0  0  0  0  0  0  0  0  0
   72.0690   36.3160    0.2090 F   0  0  0  0  0  0  0  0  0  0  0  0
   73.2608   39.3086    0.7894 H   0  0  0  0  0  0  0  0  0  0  0  0
   73.3618   38.4107   -0.7631 H   0  0  0  0  0  0  0  0  0  0  0  0
   73.3582   40.2069   -0.7631 H   0  0  0  0  0  0  0  0  0  0  0  0
   71.4317   41.1291   -1.5363 H   0  0  0  0  0  0  0  0  0  0  0  0
   66.1166   43.6175    0.0670 H   0  0  0  0  0  0  0  0  0  0  0  0
   64.7976   45.5107   -0.8872 H   0  0  0  0  0  0  0  0  0  0  0  0
   65.1016   46.1647   -3.2766 H   0  0  0  0  0  0  0  0  0  0  0  0
   65.9390   45.1770   -5.4790 H   0  0  0  0  0  0  0  0  0  0  0  0
   69.7750   40.8930   -4.9500 H   0  0  0  0  0  0  0  0  0  0  0  0
   67.5727   39.3725   -0.7360 H   0  0  0  0  0  0  0  0  0  0  0  0
   68.6697   37.5291    0.5138 H   0  0  0  0  0  0  0  0  0  0  0  0
   71.9276   37.6670    1.7267 H   0  0  0  0  0  0  0  0  0  0  0  0
  1  2  1  0
  2  3  2  0
  3  4  1  0
  4  5  1  0
  5  6  1  0
  6  7  1  0
  7  8  2  0
  8  9  1  0
  9 10  2  0
 10 11  1  0
 11 12  1  0
 11 13  2  0
 13 14  1  0
 14 15  2  0
 14 16  1  0
 16 17  1  0
  4 18  2  0
 18 19  1  0
 19 20  2  0
 20 21  1  0
 21 22  1  0
 21 23  1  0
 20  2  1  0
 16  5  2  0
 13  7  1  0
  1 24  1  0
  1 25  1  0
  1 26  1  0
  3 27  1  0
  8 28  1  0
  9 29  1  0
 10 30  1  0
 12 31  1  0
 17 32  1  0
 18 33  1  0
 19 34  1  0
 21 35  1  0
M  END
>  <meeko>  (4) 
{"is_sidechain": [false], "free_energy": -7.704, "intermolecular_energy": -9.207, "internal_energy": -0.293}

$$$$
cand_016_out
     RDKit          3D

 35 37  0  0  0  0  0  0  0  0999 V2000
   73.7250   45.7410   -3.2800 C   0  0  0  0  0  0  0  0  0  0  0  0
   73.3720   44.3810   -3.8190 C   0  0  0  0  0  0  0  0  0  0  0  0
   73.0180   43.3620   -2.9160 C   0  0  0  0  0  0  0  0  0  0  0  0
   72.6700   42.0770   -3.3560 C   0  0  0  0  0  0  0  0  0  0  0  0
   72.2790   41.0100   -2.4100 C   0  0  0  0  0  0  0  0  0  0  0  0
   70.9100   40.9740   -2.1720 O   0  0  0  0  0  0  0  0  0  0  0  0
   70.4110   40.0290   -1.3130 C   0  0  0  0  0  0  0  0  0  0  0  0
   69.0340   40.0390   -1.0900 C   0  0  0  0  0  0  0  0  0  0  0  0
   68.4610   39.1030   -0.2260 C   0  0  0  0  0  0  0  0  0  0  0  0
   69.2640   38.1590    0.4150 C   0  0  0  0  0  0  0  0  0  0  0  0
   70.6390   38.1510    0.1920 C   0  0  0  0  0  0  0  0  0  0  0  0
   71.3660   37.1980    0.8510 O   0  0  0  0  0  0  0  0  0  0  0  0
   71.2120   39.0880   -0.6730 C   0  0  0  0  0  0  0  0  0  0  0  0
   72.6520   39.1150   -0.9340 C   0  0  0  0  0  0  0  0  0  0  0  0
   73.4240   38.3120   -0.4150 O   0  0  0  0  0  0  0  0  0  0  0  0
   73.1600   40.1530   -1.8600 C   0  0  0  0  0  0  0  0  0  0  0  0
   74.5190   40.1620   -2.1120 O   0  0  0  0  0  0  0  0  0  0  0  0
   72.6580   41.8260   -4.7320 C   0  0  0  0  0  0  0  0  0  0  0  0
   72.9960   42.8290   -5.6430 C   0  0  0  0  0  0  0  0  0  0  0  0
   73.3500   44.1160   -5.2050 C   0  0  0  0  0  0  0  0  0  0  0  0
   73.7250   45.1680   -6.2230 C   0  0  0  0  0  0  0  0  0  0  0  0
   74.1630   44.6470   -7.4060 F   0  0  0  0  0  0  0  0  0  0  0  0
   72.6880   45.9890   -6.5510 F   0  0  0  0  0  0  0  0  0  0  0  0
   73.7177   45.7128   -2.1804 H   0  0  0  0  0  0  0  0  0  0  0  0
   74.7270   46.0265   -3.6328 H   0  0  0  0  0  0  0  0  0  0  0  0
   72.9883   46.4778   -3.6328 H   0  0  0  0  0  0  0  0  0  0  0  0
   73.0141   43.5788   -1.8376 H   0  0  0  0  0  0  0  0  0  0  0  0
   68.4000   40.7833   -1.5941 H   0  0  0  0  0  0  0  0  0  0  0  0
   67.3751   39.1101   -0.0507 H   0  0  0  0  0  0  0  0  0  0  0  0
   68.8120   37.4223    1.0954 H   0  0  0  0  0  0  0  0  0  0  0  0
   72.2030   36.9350    0.5210 H   0  0  0  0  0  0  0  0  0  0  0  0
   75.1170   39.8430   -1.4640 H   0  0  0  0  0  0  0  0  0  0  0  0
   72.3793   40.8277   -5.1005 H   0  0  0  0  0  0  0  0  0  0  0  0
   72.9849   42.6078   -6.7205 H   0  0  0  0  0  0  0  0  0  0  0  0
   74.5284   45.7230   -5.7166 H   0  0  0  0  0  0  0  0  0  0  0  0
  1  2  1  0
  2  3  2  0
  3  4  1  0
  4  5  1  0
  5  6  1  0
  6  7  1  0
  7  8  2  0
  8  9  1  0
  9 10  2  0
 10 11  1  0
 11 12  1  0
 11 13  2  0
 13 14  1  0
 14 15  2  0
 14 16  1  0
 16 17  1  0
  4 18  2  0
 18 19  1  0
 19 20  2  0
 20 21  1  0
 21 22  1  0
 21 23  1  0
 20  2  1  0
 16  5  2  0
 13  7  1  0
  1 24  1  0
  1 25  1  0
  1 26  1  0
  3 27  1  0
  8 28  1  0
  9 29  1  0
 10 30  1  0
 12 31  1  0
 17 32  1  0
 18 33  1  0
 19 34  1  0
 21 35  1  0
M  END
>  <meeko>  (5) 
{"is_sidechain": [false], "free_energy": -7.57, "intermolecular_energy": -8.811, "internal_energy": -0.531}

$$$$
cand_016_out
     RDKit          3D

 35 37  0  0  0  0  0  0  0  0999 V2000
   76.3520   43.3540   -2.2150 C   0  0  0  0  0  0  0  0  0  0  0  0
   75.1570   42.7290   -2.8810 C   0  0  0  0  0  0  0  0  0  0  0  0
   74.3230   41.8830   -2.1270 C   0  0  0  0  0  0  0  0  0  0  0  0
   73.1890   41.2780   -2.6880 C   0  0  0  0  0  0  0  0  0  0  0  0
   72.3000   40.4050   -1.8920 C   0  0  0  0  0  0  0  0  0  0  0  0
   70.9620   40.7710   -1.9820 O   0  0  0  0  0  0  0  0  0  0  0  0
   70.0280   40.0420   -1.2910 C   0  0  0  0  0  0  0  0  0  0  0  0
   68.6980   40.4540   -1.3960 C   0  0  0  0  0  0  0  0  0  0  0  0
   67.6970   39.7550   -0.7180 C   0  0  0  0  0  0  0  0  0  0  0  0
   68.0240   38.6460    0.0640 C   0  0  0  0  0  0  0  0  0  0  0  0
   69.3510   38.2370    0.1670 C   0  0  0  0  0  0  0  0  0  0  0  0
   69.6010   37.1420    0.9480 O   0  0  0  0  0  0  0  0  0  0  0  0
   70.3530   38.9370   -0.5110 C   0  0  0  0  0  0  0  0  0  0  0  0
   71.7600   38.5400   -0.4290 C   0  0  0  0  0  0  0  0  0  0  0  0
   72.1260   37.5710    0.2320 O   0  0  0  0  0  0  0  0  0  0  0  0
   72.7450   39.3540   -1.1780 C   0  0  0  0  0  0  0  0  0  0  0  0
   74.0690   38.9640   -1.1060 O   0  0  0  0  0  0  0  0  0  0  0  0
   72.8820   41.5510   -4.0250 C   0  0  0  0  0  0  0  0  0  0  0  0
   73.6940   42.3960   -4.7850 C   0  0  0  0  0  0  0  0  0  0  0  0
   74.8330   43.0000   -4.2270 C   0  0  0  0  0  0  0  0  0  0  0  0
   75.6930   43.8950   -5.0890 C   0  0  0  0  0  0  0  0  0  0  0  0
   76.6360   43.2170   -5.8050 F   0  0  0  0  0  0  0  0  0  0  0  0
   74.9780   44.6010   -6.0090 F   0  0  0  0  0  0  0  0  0  0  0  0
   76.2364   43.2935   -1.1228 H   0  0  0  0  0  0  0  0  0  0  0  0
   77.2630   42.8169   -2.5176 H   0  0  0  0  0  0  0  0  0  0  0  0
   76.4305   44.4086   -2.5176 H   0  0  0  0  0  0  0  0  0  0  0  0
   74.5665   41.6914   -1.0715 H   0  0  0  0  0  0  0  0  0  0  0  0
   68.4391   41.3279   -2.0119 H   0  0  0  0  0  0  0  0  0  0  0  0
   66.6490   40.0789   -0.8004 H   0  0  0  0  0  0  0  0  0  0  0  0
   67.2349   38.0962    0.5979 H   0  0  0  0  0  0  0  0  0  0  0  0
   69.1600   36.3330    0.7770 H   0  0  0  0  0  0  0  0  0  0  0  0
   74.4940   38.9020   -0.2720 H   0  0  0  0  0  0  0  0  0  0  0  0
   71.9916   41.0954   -4.4828 H   0  0  0  0  0  0  0  0  0  0  0  0
   73.4377   42.5915   -5.8367 H   0  0  0  0  0  0  0  0  0  0  0  0
   76.1640   44.5627   -4.3526 H   0  0  0  0  0  0  0  0  0  0  0  0
  1  2  1  0
  2  3  2  0
  3  4  1  0
  4  5  1  0
  5  6  1  0
  6  7  1  0
  7  8  2  0
  8  9  1  0
  9 10  2  0
 10 11  1  0
 11 12  1  0
 11 13  2  0
 13 14  1  0
 14 15  2  0
 14 16  1  0
 16 17  1  0
  4 18  2  0
 18 19  1  0
 19 20  2  0
 20 21  1  0
 21 22  1  0
 21 23  1  0
 20  2  1  0
 16  5  2  0
 13  7  1  0
  1 24  1  0
  1 25  1  0
  1 26  1  0
  3 27  1  0
  8 28  1  0
  9 29  1  0
 10 30  1  0
 12 31  1  0
 17 32  1  0
 18 33  1  0
 19 34  1  0
 21 35  1  0
M  END
>  <meeko>  (6) 
{"is_sidechain": [false], "free_energy": -7.528, "intermolecular_energy": -8.99, "internal_energy": -0.303}

$$$$
cand_016_out
     RDKit          3D

 35 37  0  0  0  0  0  0  0  0999 V2000
   75.2300   44.1360   -3.0040 C   0  0  0  0  0  0  0  0  0  0  0  0
   74.1970   43.2100   -3.5890 C   0  0  0  0  0  0  0  0  0  0  0  0
   73.4760   42.3640   -2.7260 C   0  0  0  0  0  0  0  0  0  0  0  0
   72.4950   41.4860   -3.2080 C   0  0  0  0  0  0  0  0  0  0  0  0
   71.7210   40.6110   -2.3020 C   0  0  0  0  0  0  0  0  0  0  0  0
   72.4830   39.5800   -1.7650 O   0  0  0  0  0  0  0  0  0  0  0  0
   71.8870   38.6940   -0.9050 C   0  0  0  0  0  0  0  0  0  0  0  0
   72.6840   37.6640   -0.4030 C   0  0  0  0  0  0  0  0  0  0  0  0
   72.1390   36.7280    0.4790 C   0  0  0  0  0  0  0  0  0  0  0  0
   70.7980   36.8200    0.8570 C   0  0  0  0  0  0  0  0  0  0  0  0
   70.0050   37.8480    0.3540 C   0  0  0  0  0  0  0  0  0  0  0  0
   68.7010   37.8800    0.7670 O   0  0  0  0  0  0  0  0  0  0  0  0
   70.5500   38.7850   -0.5280 C   0  0  0  0  0  0  0  0  0  0  0  0
   69.7510   39.8800   -1.0800 C   0  0  0  0  0  0  0  0  0  0  0  0
   68.5660   40.0330   -0.7890 O   0  0  0  0  0  0  0  0  0  0  0  0
   70.4220   40.8140   -2.0130 C   0  0  0  0  0  0  0  0  0  0  0  0
   69.6620   41.8530   -2.5180 O   0  0  0  0  0  0  0  0  0  0  0  0
   72.2240   41.4810   -4.5800 C   0  0  0  0  0  0  0  0  0  0  0  0
   72.9240   42.3210   -5.4500 C   0  0  0  0  0  0  0  0  0  0  0  0
   73.9100   43.1980   -4.9700 C   0  0  0  0  0  0  0  0  0  0  0  0
   74.6560   44.0790   -5.9460 C   0  0  0  0  0  0  0  0  0  0  0  0
   75.3650   43.3780   -6.8780 F   0  0  0  0  0  0  0  0  0  0  0  0
   73.8360   44.9010   -6.6590 F   0  0  0  0  0  0  0  0  0  0  0  0
   75.1815   44.0925   -1.9059 H   0  0  0  0  0  0  0  0  0  0  0  0
   76.2311   43.8272   -3.3393 H   0  0  0  0  0  0  0  0  0  0  0  0
   75.0321   45.1648   -3.3393 H   0  0  0  0  0  0  0  0  0  0  0  0
   73.6873   42.3923   -1.6469 H   0  0  0  0  0  0  0  0  0  0  0  0
   73.7401   37.5895   -0.7016 H   0  0  0  0  0  0  0  0  0  0  0  0
   72.7672   35.9172    0.8764 H   0  0  0  0  0  0  0  0  0  0  0  0
   70.3690   36.0819    1.5507 H   0  0  0  0  0  0  0  0  0  0  0  0
   68.0800   38.4190    0.3180 H   0  0  0  0  0  0  0  0  0  0  0  0
   69.4420   42.5810   -1.9710 H   0  0  0  0  0  0  0  0  0  0  0  0
   71.4508   40.8080   -4.9789 H   0  0  0  0  0  0  0  0  0  0  0  0
   72.6994   42.2949   -6.5265 H   0  0  0  0  0  0  0  0  0  0  0  0
   75.3278   44.6543   -5.2920 H   0  0  0  0  0  0  0  0  0  0  0  0
  1  2  1  0
  2  3  2  0
  3  4  1  0
  4  5  1  0
  5  6  1  0
  6  7  1  0
  7  8  2  0
  8  9  1  0
  9 10  2  0
 10 11  1  0
 11 12  1  0
 11 13  2  0
 13 14  1  0
 14 15  2  0
 14 16  1  0
 16 17  1  0
  4 18  2  0
 18 19  1  0
 19 20  2  0
 20 21  1  0
 21 22  1  0
 21 23  1  0
 20  2  1  0
 16  5  2  0
 13  7  1  0
  1 24  1  0
  1 25  1  0
  1 26  1  0
  3 27  1  0
  8 28  1  0
  9 29  1  0
 10 30  1  0
 12 31  1  0
 17 32  1  0
 18 33  1  0
 19 34  1  0
 21 35  1  0
M  END
>  <meeko>  (7) 
{"is_sidechain": [false], "free_energy": -7.5, "intermolecular_energy": -8.824, "internal_energy": -0.436}

$$$$
cand_016_out
     RDKit          3D

 35 37  0  0  0  0  0  0  0  0999 V2000
   70.0180   41.9500   -0.6440 C   0  0  0  0  0  0  0  0  0  0  0  0
   71.0220   41.0470   -1.3080 C   0  0  0  0  0  0  0  0  0  0  0  0
   71.9770   41.6110   -2.1730 C   0  0  0  0  0  0  0  0  0  0  0  0
   72.9450   40.8250   -2.8140 C   0  0  0  0  0  0  0  0  0  0  0  0
   73.9620   41.4180   -3.7080 C   0  0  0  0  0  0  0  0  0  0  0  0
   73.4420   41.8050   -4.9380 O   0  0  0  0  0  0  0  0  0  0  0  0
   74.2800   42.3720   -5.8630 C   0  0  0  0  0  0  0  0  0  0  0  0
   73.7210   42.7300   -7.0900 C   0  0  0  0  0  0  0  0  0  0  0  0
   74.5190   43.3130   -8.0770 C   0  0  0  0  0  0  0  0  0  0  0  0
   75.8750   43.5380   -7.8370 C   0  0  0  0  0  0  0  0  0  0  0  0
   76.4320   43.1790   -6.6120 C   0  0  0  0  0  0  0  0  0  0  0  0
   77.7660   43.4280   -6.4430 O   0  0  0  0  0  0  0  0  0  0  0  0
   75.6330   42.5950   -5.6250 C   0  0  0  0  0  0  0  0  0  0  0  0
   76.1790   42.2030   -4.3250 C   0  0  0  0  0  0  0  0  0  0  0  0
   77.3610   42.3750   -4.0350 O   0  0  0  0  0  0  0  0  0  0  0  0
   75.2500   41.5840   -3.3510 C   0  0  0  0  0  0  0  0  0  0  0  0
   75.7710   41.2300   -2.1210 O   0  0  0  0  0  0  0  0  0  0  0  0
   72.9600   39.4500   -2.5580 C   0  0  0  0  0  0  0  0  0  0  0  0
   72.0250   38.8740   -1.6940 C   0  0  0  0  0  0  0  0  0  0  0  0
   71.0520   39.6600   -1.0550 C   0  0  0  0  0  0  0  0  0  0  0  0
   70.0490   38.9950   -0.1390 C   0  0  0  0  0  0  0  0  0  0  0  0
   68.7810   38.9800   -0.6440 F   0  0  0  0  0  0  0  0  0  0  0  0
   70.3480   37.6940    0.1280 F   0  0  0  0  0  0  0  0  0  0  0  0
   70.1136   41.8640    0.4485 H   0  0  0  0  0  0  0  0  0  0  0  0
   70.2038   42.9908   -0.9475 H   0  0  0  0  0  0  0  0  0  0  0  0
   69.0026   41.6553   -0.9475 H   0  0  0  0  0  0  0  0  0  0  0  0
   71.9641   42.6964   -2.3511 H   0  0  0  0  0  0  0  0  0  0  0  0
   72.6521   42.5532   -7.2801 H   0  0  0  0  0  0  0  0  0  0  0  0
   74.0780   43.5950   -9.0445 H   0  0  0  0  0  0  0  0  0  0  0  0
   76.5030   43.9982   -8.6140 H   0  0  0  0  0  0  0  0  0  0  0  0
   78.0660   44.3050   -6.3050 H   0  0  0  0  0  0  0  0  0  0  0  0
   75.2590   40.7200   -1.5240 H   0  0  0  0  0  0  0  0  0  0  0  0
   73.7164   38.8149   -3.0423 H   0  0  0  0  0  0  0  0  0  0  0  0
   72.0513   37.7895   -1.5117 H   0  0  0  0  0  0  0  0  0  0  0  0
   70.1029   39.6103    0.7712 H   0  0  0  0  0  0  0  0  0  0  0  0
  1  2  1  0
  2  3  2  0
  3  4  1  0
  4  5  1  0
  5  6  1  0
  6  7  1  0
  7  8  2  0
  8  9  1  0
  9 10  2  0
 10 11  1  0
 11 12  1  0
 11 13  2  0
 13 14  1  0
 14 15  2  0
 14 16  1  0
 16 17  1  0
  4 18  2  0
 18 19  1  0
 19 20  2  0
 20 21  1  0
 21 22  1  0
 21 23  1  0
 20  2  1  0
 16  5  2  0
 13  7  1  0
  1 24  1  0
  1 25  1  0
  1 26  1  0
  3 27  1  0
  8 28  1  0
  9 29  1  0
 10 30  1  0
 12 31  1  0
 17 32  1  0
 18 33  1  0
 19 34  1  0
 21 35  1  0
M  END
>  <meeko>  (8) 
{"is_sidechain": [false], "free_energy": -7.48, "intermolecular_energy": -8.8, "internal_energy": -0.436}

$$$$
cand_016_out
     RDKit          3D

 35 37  0  0  0  0  0  0  0  0999 V2000
   74.3690   45.7350   -3.6760 C   0  0  0  0  0  0  0  0  0  0  0  0
   74.2880   44.2910   -3.2610 C   0  0  0  0  0  0  0  0  0  0  0  0
   73.0220   43.7160   -3.0450 C   0  0  0  0  0  0  0  0  0  0  0  0
   72.8790   42.3740   -2.6650 C   0  0  0  0  0  0  0  0  0  0  0  0
   71.5500   41.7610   -2.4580 C   0  0  0  0  0  0  0  0  0  0  0  0
   71.4960   40.9550   -1.3270 O   0  0  0  0  0  0  0  0  0  0  0  0
   70.3190   40.3250   -1.0170 C   0  0  0  0  0  0  0  0  0  0  0  0
   70.3140   39.5120    0.1170 C   0  0  0  0  0  0  0  0  0  0  0  0
   69.1470   38.8420    0.4900 C   0  0  0  0  0  0  0  0  0  0  0  0
   67.9850   38.9850   -0.2700 C   0  0  0  0  0  0  0  0  0  0  0  0
   67.9910   39.7970   -1.4010 C   0  0  0  0  0  0  0  0  0  0  0  0
   66.8190   39.8930   -2.0990 O   0  0  0  0  0  0  0  0  0  0  0  0
   69.1600   40.4660   -1.7740 C   0  0  0  0  0  0  0  0  0  0  0  0
   69.2100   41.3280   -2.9560 C   0  0  0  0  0  0  0  0  0  0  0  0
   68.2270   41.5110   -3.6720 O   0  0  0  0  0  0  0  0  0  0  0  0
   70.5000   41.9860   -3.2700 C   0  0  0  0  0  0  0  0  0  0  0  0
   70.5330   42.8090   -4.3800 O   0  0  0  0  0  0  0  0  0  0  0  0
   74.0330   41.5960   -2.5250 C   0  0  0  0  0  0  0  0  0  0  0  0
   75.2970   42.1490   -2.7450 C   0  0  0  0  0  0  0  0  0  0  0  0
   75.4430   43.4940   -3.1210 C   0  0  0  0  0  0  0  0  0  0  0  0
   76.8300   44.0570   -3.3340 C   0  0  0  0  0  0  0  0  0  0  0  0
   77.2450   44.8750   -2.3230 F   0  0  0  0  0  0  0  0  0  0  0  0
   77.7880   43.0950   -3.4380 F   0  0  0  0  0  0  0  0  0  0  0  0
   74.4048   46.3725   -2.7803 H   0  0  0  0  0  0  0  0  0  0  0  0
   75.2775   45.8938   -4.2756 H   0  0  0  0  0  0  0  0  0  0  0  0
   73.4840   45.9944   -4.2756 H   0  0  0  0  0  0  0  0  0  0  0  0
   72.1222   44.3347   -3.1776 H   0  0  0  0  0  0  0  0  0  0  0  0
   71.2290   39.3989    0.7169 H   0  0  0  0  0  0  0  0  0  0  0  0
   69.1434   38.2008    1.3838 H   0  0  0  0  0  0  0  0  0  0  0  0
   67.0659   38.4570    0.0242 H   0  0  0  0  0  0  0  0  0  0  0  0
   66.4320   39.1260   -2.4740 H   0  0  0  0  0  0  0  0  0  0  0  0
   71.3250   42.8960   -4.8750 H   0  0  0  0  0  0  0  0  0  0  0  0
   73.9444   40.5376   -2.2387 H   0  0  0  0  0  0  0  0  0  0  0  0
   76.1917   41.5210   -2.6218 H   0  0  0  0  0  0  0  0  0  0  0  0
   76.7246   44.6174   -4.2747 H   0  0  0  0  0  0  0  0  0  0  0  0
  1  2  1  0
  2  3  2  0
  3  4  1  0
  4  5  1  0
  5  6  1  0
  6  7  1  0
  7  8  2  0
  8  9  1  0
  9 10  2  0
 10 11  1  0
 11 12  1  0
 11 13  2  0
 13 14  1  0
 14 15  2  0
 14 16  1  0
 16 17  1  0
  4 18  2  0
 18 19  1  0
 19 20  2  0
 20 21  1  0
 21 22  1  0
 21 23  1  0
 20  2  1  0
 16  5  2  0
 13  7  1  0
  1 24  1  0
  1 25  1  0
  1 26  1  0
  3 27  1  0
  8 28  1  0
  9 29  1  0
 10 30  1  0
 12 31  1  0
 17 32  1  0
 18 33  1  0
 19 34  1  0
 21 35  1  0
M  END
>  <meeko>  (9) 
{"is_sidechain": [false], "free_energy": -7.446, "intermolecular_energy": -9.037, "internal_energy": -0.16}

$$$$
