cand_002_out
     RDKit          3D

 45 48  0  0  0  0  0  0  0  0999 V2000
   72.5980   38.0850   -1.2370 C   0  0  0  0  0  0  0  0  0  0  0  0
   72.5350   39.5360   -1.6280 C   0  0  0  0  0  0  0  0  0  0  0  0
   73.4500   40.0150   -2.5850 C   0  0  0  0  0  0  0  0  0  0  0  0
   73.4630   41.3580   -2.9890 C   0  0  0  0  0  0  0  0  0  0  0  0
   74.4580   41.8200   -3.9810 C   0  0  0  0  0  0  0  0  0  0  0  0
   73.8760   42.2580   -5.1650 O   0  0  0  0  0  0  0  0  0  0  0  0
   74.6860   42.7140   -6.1740 C   0  0  0  0  0  0  0  0  0  0  0  0
   74.0600   43.1310   -7.3490 C   0  0  0  0  0  0  0  0  0  0  0  0
   74.8260   43.6080   -8.4150 C   0  0  0  0  0  0  0  0  0  0  0  0
   76.2170   43.6680   -8.3040 C   0  0  0  0  0  0  0  0  0  0  0  0
   76.8380   43.2520   -7.1300 C   0  0  0  0  0  0  0  0  0  0  0  0
   78.2040   43.3390   -7.0900 O   0  0  0  0  0  0  0  0  0  0  0  0
   76.0710   42.7740   -6.0650 C   0  0  0  0  0  0  0  0  0  0  0  0
   76.6850   42.3270   -4.8140 C   0  0  0  0  0  0  0  0  0  0  0  0
   77.9010   42.3560   -4.6380 O   0  0  0  0  0  0  0  0  0  0  0  0
   75.7840   41.8300   -3.7480 C   0  0  0  0  0  0  0  0  0  0  0  0
   76.3730   41.4230   -2.5650 O   0  0  0  0  0  0  0  0  0  0  0  0
   72.5500   42.2370   -2.3990 C   0  0  0  0  0  0  0  0  0  0  0  0
   71.6440   41.7820   -1.4390 C   0  0  0  0  0  0  0  0  0  0  0  0
   71.6230   40.4350   -1.0380 C   0  0  0  0  0  0  0  0  0  0  0  0
   70.6190   40.0090    0.0180 C   0  0  0  0  0  0  0  0  0  0  0  0
   69.2190   39.7410   -0.4920 C   0  0  0  0  0  0  0  0  0  0  0  0
   68.7640   40.3700   -1.6600 C   0  0  0  0  0  0  0  0  0  0  0  0
   67.4680   40.1520   -2.1280 C   0  0  0  0  0  0  0  0  0  0  0  0
   66.6060   39.3090   -1.4290 C   0  0  0  0  0  0  0  0  0  0  0  0
   67.0400   38.6870   -0.2600 C   0  0  0  0  0  0  0  0  0  0  0  0
   68.3370   38.9050    0.2090 C   0  0  0  0  0  0  0  0  0  0  0  0
   72.6017   38.0006   -0.1402 H   0  0  0  0  0  0  0  0  0  0  0  0
   71.7219   37.5576   -1.6424 H   0  0  0  0  0  0  0  0  0  0  0  0
   73.5165   37.6356   -1.6424 H   0  0  0  0  0  0  0  0  0  0  0  0
   74.1749   39.3164   -3.0282 H   0  0  0  0  0  0  0  0  0  0  0  0
   72.9644   43.0842   -7.4358 H   0  0  0  0  0  0  0  0  0  0  0  0
   74.3337   43.9365   -9.3422 H   0  0  0  0  0  0  0  0  0  0  0  0
   76.8208   44.0435   -9.1433 H   0  0  0  0  0  0  0  0  0  0  0  0
   78.6190   44.1780   -7.0700 H   0  0  0  0  0  0  0  0  0  0  0  0
   77.0380   40.7620   -2.5760 H   0  0  0  0  0  0  0  0  0  0  0  0
   72.5453   43.2968   -2.6938 H   0  0  0  0  0  0  0  0  0  0  0  0
   70.9336   42.4907   -0.9882 H   0  0  0  0  0  0  0  0  0  0  0  0
   70.9915   39.0874    0.4890 H   0  0  0  0  0  0  0  0  0  0  0  0
   70.5323   40.8557    0.7148 H   0  0  0  0  0  0  0  0  0  0  0  0
   69.4363   41.0425   -2.2130 H   0  0  0  0  0  0  0  0  0  0  0  0
   67.1262   40.6459   -3.0495 H   0  0  0  0  0  0  0  0  0  0  0  0
   65.5850   39.1350   -1.7994 H   0  0  0  0  0  0  0  0  0  0  0  0
   66.3599   38.0233    0.2941 H   0  0  0  0  0  0  0  0  0  0  0  0
   68.6703   38.4168    1.1367 H   0  0  0  0  0  0  0  0  0  0  0  0
  1  2  1  0
  2  3  2  0
  3  4  1  0
  4  5  1  0
  5  6  1  0
  6  7  1  0
  7  8  2  0
  8  9  1  0
  9 10  2  0
 10 11  1  0
 11 12  1  0
 11 13  2  0
 13 14  1  0
 14 15  2  0
 14 16  1  0
 16 17  1  0
  4 18  2  0
 18 19  1  0
 19 20  2  0
 20 21  1  0
 21 22  1  0
 22 23  2  0
 23 24  1  0
 24 25  2  0
 25 26  1  0
 26 27  2  0
 20  2  1  0
 27 22  1  0
 16  5  2  0
 13  7  1  0
  1 28  1  0
  1 29  1  0
  1 30  1  0
  3 31  1  0
  8 32  1  0
  9 33  1  0
 10 34  1  0
 12 35  1  0
 17 36  1  0
 18 37  1  0
 19 38  1  0
 21 39  1  0
 21 40  1  0
 23 41  1  0
 24 42  1  0
 25 43  1  0
 26 44  1  0
 27 45  1  0
M  END
>  <meeko>  (1) 
{"is_sidechain": [false], "free_energy": -8.553, "intermolecular_energy": -10.553, "internal_energy": -0.605}

$$$$
cand_002_out
     RDKit          3D

 45 48  0  0  0  0  0  0  0  0999 V2000
   71.4480   40.2420   -4.3930 C   0  0  0  0  0  0  0  0  0  0  0  0
   72.5580   40.6000   -3.4450 C   0  0  0  0  0  0  0  0  0  0  0  0
   73.1820   41.8550   -3.5830 C   0  0  0  0  0  0  0  0  0  0  0  0
   74.2350   42.2550   -2.7460 C   0  0  0  0  0  0  0  0  0  0  0  0
   74.8730   43.5740   -2.9440 C   0  0  0  0  0  0  0  0  0  0  0  0
   73.9520   44.6050   -3.0740 O   0  0  0  0  0  0  0  0  0  0  0  0
   74.4090   45.8850   -3.2630 C   0  0  0  0  0  0  0  0  0  0  0  0
   73.4480   46.8870   -3.4020 C   0  0  0  0  0  0  0  0  0  0  0  0
   73.8460   48.2110   -3.5960 C   0  0  0  0  0  0  0  0  0  0  0  0
   75.2040   48.5330   -3.6490 C   0  0  0  0  0  0  0  0  0  0  0  0
   76.1600   47.5310   -3.5100 C   0  0  0  0  0  0  0  0  0  0  0  0
   77.4720   47.9160   -3.5720 O   0  0  0  0  0  0  0  0  0  0  0  0
   75.7610   46.2060   -3.3170 C   0  0  0  0  0  0  0  0  0  0  0  0
   76.7340   45.1230   -3.1660 C   0  0  0  0  0  0  0  0  0  0  0  0
   77.9460   45.3270   -3.1950 O   0  0  0  0  0  0  0  0  0  0  0  0
   76.2080   43.7520   -2.9740 C   0  0  0  0  0  0  0  0  0  0  0  0
   77.1360   42.7380   -2.8190 O   0  0  0  0  0  0  0  0  0  0  0  0
   74.6790   41.3610   -1.7680 C   0  0  0  0  0  0  0  0  0  0  0  0
   74.0810   40.1080   -1.6240 C   0  0  0  0  0  0  0  0  0  0  0  0
   73.0200   39.7080   -2.4560 C   0  0  0  0  0  0  0  0  0  0  0  0
   72.4220   38.3270   -2.2540 C   0  0  0  0  0  0  0  0  0  0  0  0
   71.7940   38.0880   -0.8980 C   0  0  0  0  0  0  0  0  0  0  0  0
   72.2010   36.9960   -0.1170 C   0  0  0  0  0  0  0  0  0  0  0  0
   71.6120   36.7490    1.1240 C   0  0  0  0  0  0  0  0  0  0  0  0
   70.6030   37.5850    1.5970 C   0  0  0  0  0  0  0  0  0  0  0  0
   70.1790   38.6660    0.8260 C   0  0  0  0  0  0  0  0  0  0  0  0
   70.7680   38.9140   -0.4150 C   0  0  0  0  0  0  0  0  0  0  0  0
   70.5546   39.9539   -3.8195 H   0  0  0  0  0  0  0  0  0  0  0  0
   71.2128   41.1098   -5.0267 H   0  0  0  0  0  0  0  0  0  0  0  0
   71.7642   39.4003   -5.0267 H   0  0  0  0  0  0  0  0  0  0  0  0
   72.8341   42.5412   -4.3692 H   0  0  0  0  0  0  0  0  0  0  0  0
   72.3783   46.6341   -3.3588 H   0  0  0  0  0  0  0  0  0  0  0  0
   73.0892   49.0015   -3.7072 H   0  0  0  0  0  0  0  0  0  0  0  0
   75.5174   49.5765   -3.8003 H   0  0  0  0  0  0  0  0  0  0  0  0
   77.9420   48.1070   -2.7840 H   0  0  0  0  0  0  0  0  0  0  0  0
   78.0060   42.8450   -3.1480 H   0  0  0  0  0  0  0  0  0  0  0  0
   75.5084   41.6477   -1.1047 H   0  0  0  0  0  0  0  0  0  0  0  0
   74.4460   39.4213   -0.8461 H   0  0  0  0  0  0  0  0  0  0  0  0
   71.6463   38.1770   -3.0193 H   0  0  0  0  0  0  0  0  0  0  0  0
   73.2593   37.6178   -2.3315 H   0  0  0  0  0  0  0  0  0  0  0  0
   72.9925   36.3275   -0.4865 H   0  0  0  0  0  0  0  0  0  0  0  0
   71.9450   35.8931    1.7294 H   0  0  0  0  0  0  0  0  0  0  0  0
   70.1418   37.3924    2.5769 H   0  0  0  0  0  0  0  0  0  0  0  0
   69.3793   39.3245    1.1959 H   0  0  0  0  0  0  0  0  0  0  0  0
   70.4242   39.7657   -1.0204 H   0  0  0  0  0  0  0  0  0  0  0  0
  1  2  1  0
  2  3  2  0
  3  4  1  0
  4  5  1  0
  5  6  1  0
  6  7  1  0
  7  8  2  0
  8  9  1  0
  9 10  2  0
 10 11  1  0
 11 12  1  0
 11 13  2  0
 13 14  1  0
 14 15  2  0
 14 16  1  0
 16 17  1  0
  4 18  2  0
 18 19  1  0
 19 20  2  0
 20 21  1  0
 21 22  1  0
 22 23  2  0
 23 24  1  0
 24 25  2  0
 25 26  1  0
 26 27  2  0
 20  2  1  0
 27 22  1  0
 16  5  2  0
 13  7  1  0
  1 28  1  0
  1 29  1  0
  1 30  1  0
  3 31  1  0
  8 32  1  0
  9 33  1  0
 10 34  1  0
 12 35  1  0
 17 36  1  0
 18 37  1  0
 19 38  1  0
 21 39  1  0
 21 40  1  0
 23 41  1  0
 24 42  1  0
 25 43  1  0
 26 44  1  0
 27 45  1  0
M  END
>  <meeko>  (2) 
{"is_sidechain": [false], "free_energy": -8.502, "intermolecular_energy": -10.421, "internal_energy": -0.674}

$$$$
cand_002_out
     RDKit          3D

 45 48  0  0  0  0  0  0  0  0999 V2000
   75.1650   44.1130   -2.9560 C   0  0  0  0  0  0  0  0  0  0  0  0
   74.1500   43.2000   -3.5870 C   0  0  0  0  0  0  0  0  0  0  0  0
   73.3860   42.3640   -2.7490 C   0  0  0  0  0  0  0  0  0  0  0  0
   72.4310   41.4740   -3.2640 C   0  0  0  0  0  0  0  0  0  0  0  0
   71.6680   40.6010   -2.3470 C   0  0  0  0  0  0  0  0  0  0  0  0
   72.4400   39.5770   -1.8100 O   0  0  0  0  0  0  0  0  0  0  0  0
   71.8570   38.6910   -0.9410 C   0  0  0  0  0  0  0  0  0  0  0  0
   72.6650   37.6710   -0.4370 C   0  0  0  0  0  0  0  0  0  0  0  0
   72.1330   36.7360    0.4530 C   0  0  0  0  0  0  0  0  0  0  0  0
   70.7950   36.8220    0.8410 C   0  0  0  0  0  0  0  0  0  0  0  0
   69.9900   37.8400    0.3370 C   0  0  0  0  0  0  0  0  0  0  0  0
   68.6880   37.8650    0.7590 O   0  0  0  0  0  0  0  0  0  0  0  0
   70.5220   38.7750   -0.5550 C   0  0  0  0  0  0  0  0  0  0  0  0
   69.7120   39.8610   -1.1080 C   0  0  0  0  0  0  0  0  0  0  0  0
   68.5280   40.0060   -0.8100 O   0  0  0  0  0  0  0  0  0  0  0  0
   70.3690   40.7940   -2.0510 C   0  0  0  0  0  0  0  0  0  0  0  0
   69.5970   41.8250   -2.5570 O   0  0  0  0  0  0  0  0  0  0  0  0
   72.2610   41.4130   -4.6490 C   0  0  0  0  0  0  0  0  0  0  0  0
   73.0180   42.2260   -5.4960 C   0  0  0  0  0  0  0  0  0  0  0  0
   73.9700   43.1240   -4.9830 C   0  0  0  0  0  0  0  0  0  0  0  0
   74.7680   43.9700   -5.9590 C   0  0  0  0  0  0  0  0  0  0  0  0
   76.0760   43.3650   -6.4210 C   0  0  0  0  0  0  0  0  0  0  0  0
   76.8120   43.9790   -7.4450 C   0  0  0  0  0  0  0  0  0  0  0  0
   78.0070   43.4170   -7.8980 C   0  0  0  0  0  0  0  0  0  0  0  0
   78.4770   42.2310   -7.3390 C   0  0  0  0  0  0  0  0  0  0  0  0
   77.7490   41.6020   -6.3310 C   0  0  0  0  0  0  0  0  0  0  0  0
   76.5540   42.1630   -5.8770 C   0  0  0  0  0  0  0  0  0  0  0  0
   75.0890   44.0446   -1.8608 H   0  0  0  0  0  0  0  0  0  0  0  0
   76.1749   43.8133   -3.2729 H   0  0  0  0  0  0  0  0  0  0  0  0
   74.9736   45.1488   -3.2729 H   0  0  0  0  0  0  0  0  0  0  0  0
   73.5424   42.4102   -1.6611 H   0  0  0  0  0  0  0  0  0  0  0  0
   73.7201   37.6037   -0.7406 H   0  0  0  0  0  0  0  0  0  0  0  0
   72.7691   35.9306    0.8489 H   0  0  0  0  0  0  0  0  0  0  0  0
   70.3771   36.0864    1.5441 H   0  0  0  0  0  0  0  0  0  0  0  0
   68.1520   37.1020    0.6680 H   0  0  0  0  0  0  0  0  0  0  0  0
   68.7600   41.6400   -2.9360 H   0  0  0  0  0  0  0  0  0  0  0  0
   71.5237   40.7179   -5.0770 H   0  0  0  0  0  0  0  0  0  0  0  0
   72.8664   42.1623   -6.5836 H   0  0  0  0  0  0  0  0  0  0  0  0
   74.1426   44.1455   -6.8467 H   0  0  0  0  0  0  0  0  0  0  0  0
   75.0332   44.8900   -5.4174 H   0  0  0  0  0  0  0  0  0  0  0  0
   76.4440   44.9126   -7.8956 H   0  0  0  0  0  0  0  0  0  0  0  0
   78.5782   43.9115   -8.6975 H   0  0  0  0  0  0  0  0  0  0  0  0
   79.4214   41.7916   -7.6927 H   0  0  0  0  0  0  0  0  0  0  0  0
   78.1163   40.6624   -5.8925 H   0  0  0  0  0  0  0  0  0  0  0  0
   75.9815   41.6579   -5.0851 H   0  0  0  0  0  0  0  0  0  0  0  0
  1  2  1  0
  2  3  2  0
  3  4  1  0
  4  5  1  0
  5  6  1  0
  6  7  1  0
  7  8  2  0
  8  9  1  0
  9 10  2  0
 10 11  1  0
 11 12  1  0
 11 13  2  0
 13 14  1  0
 14 15  2  0
 14 16  1  0
 16 17  1  0
  4 18  2  0
 18 19  1  0
 19 20  2  0
 20 21  1  0
 21 22  1  0
 22 23  2  0
 23 24  1  0
 24 25  2  0
 25 26  1  0
 26 27  2  0
 20  2  1  0
 27 22  1  0
 16  5  2  0
 13  7  1  0
  1 28  1  0
  1 29  1  0
  1 30  1  0
  3 31  1  0
  8 32  1  0
  9 33  1  0
 10 34  1  0
 12 35  1  0
 17 36  1  0
 18 37  1  0
 19 38  1  0
 21 39  1  0
 21 40  1  0
 23 41  1  0
 24 42  1  0
 25 43  1  0
 26 44  1  0
 27 45  1  0
M  END
>  <meeko>  (3) 
{"is_sidechain": [false], "free_energy": -8.293, "intermolecular_energy": -9.967, "internal_energy": -0.87}

$$$$
cand_002_out
     RDKit          3D

 45 48  0  0  0  0  0  0  0  0999 V2000
   71.8510   39.7190   -3.5320 C   0  0  0  0  0  0  0  0  0  0  0  0
   70.9980   40.7170   -2.7990 C   0  0  0  0  0  0  0  0  0  0  0  0
   69.9940   41.3990   -3.5140 C   0  0  0  0  0  0  0  0  0  0  0  0
   69.1690   42.3550   -2.9040 C   0  0  0  0  0  0  0  0  0  0  0  0
   68.1440   43.0610   -3.7020 C   0  0  0  0  0  0  0  0  0  0  0  0
   68.5450   43.2920   -5.0120 O   0  0  0  0  0  0  0  0  0  0  0  0
   67.6870   43.9400   -5.8650 C   0  0  0  0  0  0  0  0  0  0  0  0
   68.1360   44.1640   -7.1670 C   0  0  0  0  0  0  0  0  0  0  0  0
   67.3120   44.8170   -8.0850 C   0  0  0  0  0  0  0  0  0  0  0  0
   66.0390   45.2450   -7.7020 C   0  0  0  0  0  0  0  0  0  0  0  0
   65.5940   45.0200   -6.4030 C   0  0  0  0  0  0  0  0  0  0  0  0
   64.3360   45.4650   -6.0950 O   0  0  0  0  0  0  0  0  0  0  0  0
   66.4190   44.3680   -5.4840 C   0  0  0  0  0  0  0  0  0  0  0  0
   65.9900   44.1120   -4.1080 C   0  0  0  0  0  0  0  0  0  0  0  0
   64.8820   44.4520   -3.6980 O   0  0  0  0  0  0  0  0  0  0  0  0
   66.9430   43.4200   -3.2100 C   0  0  0  0  0  0  0  0  0  0  0  0
   66.5210   43.1710   -1.9170 O   0  0  0  0  0  0  0  0  0  0  0  0
   69.3760   42.6430   -1.5520 C   0  0  0  0  0  0  0  0  0  0  0  0
   70.3740   41.9860   -0.8290 C   0  0  0  0  0  0  0  0  0  0  0  0
   71.1980   41.0220   -1.4370 C   0  0  0  0  0  0  0  0  0  0  0  0
   72.2710   40.3530   -0.5960 C   0  0  0  0  0  0  0  0  0  0  0  0
   71.8950   39.0040   -0.0220 C   0  0  0  0  0  0  0  0  0  0  0  0
   72.6650   37.8710   -0.3270 C   0  0  0  0  0  0  0  0  0  0  0  0
   72.3150   36.6170    0.1750 C   0  0  0  0  0  0  0  0  0  0  0  0
   71.1870   36.4770    0.9810 C   0  0  0  0  0  0  0  0  0  0  0  0
   70.4060   37.5910    1.2810 C   0  0  0  0  0  0  0  0  0  0  0  0
   70.7550   38.8470    0.7790 C   0  0  0  0  0  0  0  0  0  0  0  0
   72.3875   39.0913   -2.8052 H   0  0  0  0  0  0  0  0  0  0  0  0
   71.2120   39.0842   -4.1635 H   0  0  0  0  0  0  0  0  0  0  0  0
   72.5775   40.2513   -4.1635 H   0  0  0  0  0  0  0  0  0  0  0  0
   69.8530   41.1752   -4.5817 H   0  0  0  0  0  0  0  0  0  0  0  0
   69.1382   43.8263   -7.4696 H   0  0  0  0  0  0  0  0  0  0  0  0
   67.6657   44.9947   -9.1113 H   0  0  0  0  0  0  0  0  0  0  0  0
   65.3894   45.7590   -8.4258 H   0  0  0  0  0  0  0  0  0  0  0  0
   63.6750   44.8560   -5.8320 H   0  0  0  0  0  0  0  0  0  0  0  0
   65.8590   42.5280   -1.7560 H   0  0  0  0  0  0  0  0  0  0  0  0
   68.7467   43.3944   -1.0526 H   0  0  0  0  0  0  0  0  0  0  0  0
   70.5181   42.2267    0.2346 H   0  0  0  0  0  0  0  0  0  0  0  0
   73.1620   40.2176   -1.2267 H   0  0  0  0  0  0  0  0  0  0  0  0
   72.4383   41.0148    0.2666 H   0  0  0  0  0  0  0  0  0  0  0  0
   73.5531   37.9725   -0.9681 H   0  0  0  0  0  0  0  0  0  0  0  0
   72.9305   35.7377   -0.0659 H   0  0  0  0  0  0  0  0  0  0  0  0
   70.9137   35.4889    1.3796 H   0  0  0  0  0  0  0  0  0  0  0  0
   69.5132   37.4814    1.9141 H   0  0  0  0  0  0  0  0  0  0  0  0
   70.1297   39.7209    1.0143 H   0  0  0  0  0  0  0  0  0  0  0  0
  1  2  1  0
  2  3  2  0
  3  4  1  0
  4  5  1  0
  5  6  1  0
  6  7  1  0
  7  8  2  0
  8  9  1  0
  9 10  2  0
 10 11  1  0
 11 12  1  0
 11 13  2  0
 13 14  1  0
 14 15  2  0
 14 16  1  0
 16 17  1  0
  4 18  2  0
 18 19  1  0
 19 20  2  0
 20 21  1  0
 21 22  1  0
 22 23  2  0
 23 24  1  0
 24 25  2  0
 25 26  1  0
 26 27  2  0
 20  2  1  0
 27 22  1  0
 16  5  2  0
 13  7  1  0
  1 28  1  0
  1 29  1  0
  1 30  1  0
  3 31  1  0
  8 32  1  0
  9 33  1  0
 10 34  1  0
 12 35  1  0
 17 36  1  0
 18 37  1  0
 19 38  1  0
 21 39  1  0
 21 40  1  0
 23 41  1  0
 24 42  1  0
 25 43  1  0
 26 44  1  0
 27 45  1  0
M  END
>  <meeko>  (4) 
{"is_sidechain": [false], "free_energy": -8.282, "intermolecular_energy": -10.276, "internal_energy": -0.548}

$$$$
cand_002_out
     RDKit          3D

 45 48  0  0  0  0  0  0  0  0999 V2000
   73.3380   42.4800   -6.4220 C   0  0  0  0  0  0  0  0  0  0  0  0
   73.6760   42.3600   -4.9610 C   0  0  0  0  0  0  0  0  0  0  0  0
   72.9000   41.5010   -4.1600 C   0  0  0  0  0  0  0  0  0  0  0  0
   73.1440   41.3480   -2.7870 C   0  0  0  0  0  0  0  0  0  0  0  0
   72.2880   40.4500   -1.9820 C   0  0  0  0  0  0  0  0  0  0  0  0
   70.9480   40.8160   -2.0080 O   0  0  0  0  0  0  0  0  0  0  0  0
   70.0410   40.0670   -1.3020 C   0  0  0  0  0  0  0  0  0  0  0  0
   68.7080   40.4790   -1.3450 C   0  0  0  0  0  0  0  0  0  0  0  0
   67.7340   39.7600   -0.6500 C   0  0  0  0  0  0  0  0  0  0  0  0
   68.0920   38.6290    0.0870 C   0  0  0  0  0  0  0  0  0  0  0  0
   69.4220   38.2210    0.1290 C   0  0  0  0  0  0  0  0  0  0  0  0
   69.7030   37.1050    0.8700 O   0  0  0  0  0  0  0  0  0  0  0  0
   70.3970   38.9410   -0.5660 C   0  0  0  0  0  0  0  0  0  0  0  0
   71.8060   38.5460   -0.5490 C   0  0  0  0  0  0  0  0  0  0  0  0
   72.1980   37.5590    0.0710 O   0  0  0  0  0  0  0  0  0  0  0  0
   72.7610   39.3810   -1.3130 C   0  0  0  0  0  0  0  0  0  0  0  0
   74.0880   38.9910   -1.3010 O   0  0  0  0  0  0  0  0  0  0  0  0
   74.1770   42.0920   -2.2100 C   0  0  0  0  0  0  0  0  0  0  0  0
   74.9490   42.9580   -2.9870 C   0  0  0  0  0  0  0  0  0  0  0  0
   74.7110   43.1080   -4.3650 C   0  0  0  0  0  0  0  0  0  0  0  0
   75.5810   44.0750   -5.1490 C   0  0  0  0  0  0  0  0  0  0  0  0
   76.6500   43.4330   -6.0070 C   0  0  0  0  0  0  0  0  0  0  0  0
   77.1310   44.0980   -7.1440 C   0  0  0  0  0  0  0  0  0  0  0  0
   78.0980   43.5060   -7.9590 C   0  0  0  0  0  0  0  0  0  0  0  0
   78.5900   42.2390   -7.6520 C   0  0  0  0  0  0  0  0  0  0  0  0
   78.1110   41.5620   -6.5330 C   0  0  0  0  0  0  0  0  0  0  0  0
   77.1440   42.1520   -5.7170 C   0  0  0  0  0  0  0  0  0  0  0  0
   72.3065   42.8462   -6.5308 H   0  0  0  0  0  0  0  0  0  0  0  0
   74.0307   43.1872   -6.9017 H   0  0  0  0  0  0  0  0  0  0  0  0
   73.4297   41.4944   -6.9017 H   0  0  0  0  0  0  0  0  0  0  0  0
   72.0794   40.9339   -4.6236 H   0  0  0  0  0  0  0  0  0  0  0  0
   68.4254   41.3693   -1.9259 H   0  0  0  0  0  0  0  0  0  0  0  0
   66.6835   40.0846   -0.6829 H   0  0  0  0  0  0  0  0  0  0  0  0
   67.3241   38.0616    0.6333 H   0  0  0  0  0  0  0  0  0  0  0  0
   70.0590   37.1930    1.7320 H   0  0  0  0  0  0  0  0  0  0  0  0
   74.7660   39.6360   -1.3380 H   0  0  0  0  0  0  0  0  0  0  0  0
   74.3837   41.9944   -1.1340 H   0  0  0  0  0  0  0  0  0  0  0  0
   75.7579   43.5332   -2.5128 H   0  0  0  0  0  0  0  0  0  0  0  0
   74.9259   44.6648   -5.8070 H   0  0  0  0  0  0  0  0  0  0  0  0
   76.1140   44.6801   -4.4008 H   0  0  0  0  0  0  0  0  0  0  0  0
   76.7427   45.0958   -7.3964 H   0  0  0  0  0  0  0  0  0  0  0  0
   78.4719   44.0406   -8.8447 H   0  0  0  0  0  0  0  0  0  0  0  0
   79.3548   41.7746   -8.2918 H   0  0  0  0  0  0  0  0  0  0  0  0
   78.4955   40.5601   -6.2916 H   0  0  0  0  0  0  0  0  0  0  0  0
   76.7660   41.6079   -4.8389 H   0  0  0  0  0  0  0  0  0  0  0  0
  1  2  1  0
  2  3  2  0
  3  4  1  0
  4  5  1  0
  5  6  1  0
  6  7  1  0
  7  8  2  0
  8  9  1  0
  9 10  2  0
 10 11  1  0
 11 12  1  0
 11 13  2  0
 13 14  1  0
 14 15  2  0
 14 16  1  0
 16 17  1  0
  4 18  2  0
 18 19  1  0
 19 20  2  0
 20 21  1  0
 21 22  1  0
 22 23  2  0
 23 24  1  0
 24 25  2  0
 25 26  1  0
 26 27  2  0
 20  2  1  0
 27 22  1  0
 16  5  2  0
 13  7  1  0
  1 28  1  0
  1 29  1  0
  1 30  1  0
  3 31  1  0
  8 32  1  0
  9 33  1  0
 10 34  1  0
 12 35  1  0
 17 36  1  0
 18 37  1  0
 19 38  1  0
 21 39  1  0
 21 40  1  0
 23 41  1  0
 24 42  1  0
 25 43  1  0
 26 44  1  0
 27 45  1  0
M  END
>  <meeko>  (5) 
{"is_sidechain": [false], "free_energy": -8.135, "intermolecular_energy": -9.859, "internal_energy": -0.784}

$$$$
cand_002_out
     RDKit          3D

 45 48  0  0  0  0  0  0  0  0999 V2000
   74.1120   45.5270   -3.3610 C   0  0  0  0  0  0  0  0  0  0  0  0
   73.4860   44.2710   -3.9010 C   0  0  0  0  0  0  0  0  0  0  0  0
   73.1540   43.2440   -2.9980 C   0  0  0  0  0  0  0  0  0  0  0  0
   72.5810   42.0370   -3.4280 C   0  0  0  0  0  0  0  0  0  0  0  0
   72.2700   40.9780   -2.4440 C   0  0  0  0  0  0  0  0  0  0  0  0
   70.9140   40.8990   -2.1470 O   0  0  0  0  0  0  0  0  0  0  0  0
   70.4850   39.9570   -1.2460 C   0  0  0  0  0  0  0  0  0  0  0  0
   69.1190   39.9240   -0.9670 C   0  0  0  0  0  0  0  0  0  0  0  0
   68.6160   38.9880   -0.0600 C   0  0  0  0  0  0  0  0  0  0  0  0
   69.4790   38.0870    0.5650 C   0  0  0  0  0  0  0  0  0  0  0  0
   70.8420   38.1220    0.2840 C   0  0  0  0  0  0  0  0  0  0  0  0
   71.6310   37.2100    0.9320 O   0  0  0  0  0  0  0  0  0  0  0  0
   71.3450   39.0590   -0.6220 C   0  0  0  0  0  0  0  0  0  0  0  0
   72.7700   39.1310   -0.9450 C   0  0  0  0  0  0  0  0  0  0  0  0
   73.5920   38.3670   -0.4400 O   0  0  0  0  0  0  0  0  0  0  0  0
   73.2030   40.1650   -1.9130 C   0  0  0  0  0  0  0  0  0  0  0  0
   74.5500   40.2150   -2.2210 O   0  0  0  0  0  0  0  0  0  0  0  0
   72.3610   41.8580   -4.7960 C   0  0  0  0  0  0  0  0  0  0  0  0
   72.6960   42.8620   -5.7080 C   0  0  0  0  0  0  0  0  0  0  0  0
   73.2630   44.0750   -5.2790 C   0  0  0  0  0  0  0  0  0  0  0  0
   73.6130   45.1190   -6.3240 C   0  0  0  0  0  0  0  0  0  0  0  0
   74.8460   44.8190   -7.1500 C   0  0  0  0  0  0  0  0  0  0  0  0
   74.7680   44.8100   -8.5510 C   0  0  0  0  0  0  0  0  0  0  0  0
   75.8910   44.5100   -9.3240 C   0  0  0  0  0  0  0  0  0  0  0  0
   77.1030   44.2070   -8.7070 C   0  0  0  0  0  0  0  0  0  0  0  0
   77.1910   44.1990   -7.3170 C   0  0  0  0  0  0  0  0  0  0  0  0
   76.0690   44.4990   -6.5420 C   0  0  0  0  0  0  0  0  0  0  0  0
   74.0985   45.4999   -2.2614 H   0  0  0  0  0  0  0  0  0  0  0  0
   75.1516   45.5993   -3.7133 H   0  0  0  0  0  0  0  0  0  0  0  0
   73.5439   46.4006   -3.7133 H   0  0  0  0  0  0  0  0  0  0  0  0
   73.3489   43.3912   -1.9255 H   0  0  0  0  0  0  0  0  0  0  0  0
   68.4387   40.6338   -1.4603 H   0  0  0  0  0  0  0  0  0  0  0  0
   67.5389   38.9613    0.1616 H   0  0  0  0  0  0  0  0  0  0  0  0
   69.0827   37.3499    1.2789 H   0  0  0  0  0  0  0  0  0  0  0  0
   71.4090   36.3000    0.9110 H   0  0  0  0  0  0  0  0  0  0  0  0
   75.0440   39.4210   -2.2920 H   0  0  0  0  0  0  0  0  0  0  0  0
   71.9199   40.9178   -5.1585 H   0  0  0  0  0  0  0  0  0  0  0  0
   72.5129   42.7006   -6.7806 H   0  0  0  0  0  0  0  0  0  0  0  0
   72.7585   45.2127   -7.0104 H   0  0  0  0  0  0  0  0  0  0  0  0
   73.8356   46.0424   -5.7692 H   0  0  0  0  0  0  0  0  0  0  0  0
   73.8128   45.0416   -9.0449 H   0  0  0  0  0  0  0  0  0  0  0  0
   75.8190   44.5128  -10.4216 H   0  0  0  0  0  0  0  0  0  0  0  0
   77.9887   43.9745   -9.3165 H   0  0  0  0  0  0  0  0  0  0  0  0
   78.1463   43.9559   -6.8288 H   0  0  0  0  0  0  0  0  0  0  0  0
   76.1448   44.4843   -5.4447 H   0  0  0  0  0  0  0  0  0  0  0  0
  1  2  1  0
  2  3  2  0
  3  4  1  0
  4  5  1  0
  5  6  1  0
  6  7  1  0
  7  8  2  0
  8  9  1  0
  9 10  2  0
 10 11  1  0
 11 12  1  0
 11 13  2  0
 13 14  1  0
 14 15  2  0
 14 16  1  0
 16 17  1  0
  4 18  2  0
 18 19  1  0
 19 20  2  0
 20 21  1  0
 21 22  1  0
 22 23  2  0
 23 24  1  0
 24 25  2  0
 25 26  1  0
 26 27  2  0
 20  2  1  0
 27 22  1  0
 16  5  2  0
 13  7  1  0
  1 28  1  0
  1 29  1  0
  1 30  1  0
  3 31  1  0
  8 32  1  0
  9 33  1  0
 10 34  1  0
 12 35  1  0
 17 36  1  0
 18 37  1  0
 19 38  1  0
 21 39  1  0
 21 40  1  0
 23 41  1  0
 24 42  1  0
 25 43  1  0
 26 44  1  0
 27 45  1  0
M  END
>  <meeko>  (6) 
{"is_sidechain": [false], "free_energy": -8.098, "intermolecular_energy": -9.594, "internal_energy": -1.003}

$$$$
cand_002_out
     RDKit          3D

 45 48  0  0  0  0  0  0  0  0999 V2000
   70.9130   45.3410   -4.3980 C   0  0  0  0  0  0  0  0  0  0  0  0
   72.0610   44.5690   -3.8080 C   0  0  0  0  0  0  0  0  0  0  0  0
   71.7880   43.3510   -3.1570 C   0  0  0  0  0  0  0  0  0  0  0  0
   72.8030   42.5820   -2.5690 C   0  0  0  0  0  0  0  0  0  0  0  0
   72.4650   41.3190   -1.8770 C   0  0  0  0  0  0  0  0  0  0  0  0
   71.1240   41.2430   -1.5180 O   0  0  0  0  0  0  0  0  0  0  0  0
   70.6730   40.1230   -0.8690 C   0  0  0  0  0  0  0  0  0  0  0  0
   69.3240   40.0950   -0.5150 C   0  0  0  0  0  0  0  0  0  0  0  0
   68.8000   38.9830    0.1480 C   0  0  0  0  0  0  0  0  0  0  0  0
   69.6250   37.9000    0.4550 C   0  0  0  0  0  0  0  0  0  0  0  0
   70.9710   37.9300    0.1010 C   0  0  0  0  0  0  0  0  0  0  0  0
   71.7210   36.8340    0.4330 O   0  0  0  0  0  0  0  0  0  0  0  0
   71.4950   39.0430   -0.5600 C   0  0  0  0  0  0  0  0  0  0  0  0
   72.9030   39.1150   -0.9510 C   0  0  0  0  0  0  0  0  0  0  0  0
   73.6900   38.1990   -0.7200 O   0  0  0  0  0  0  0  0  0  0  0  0
   73.3610   40.3420   -1.6420 C   0  0  0  0  0  0  0  0  0  0  0  0
   74.6910   40.3940   -2.0180 O   0  0  0  0  0  0  0  0  0  0  0  0
   74.1140   43.0640   -2.6210 C   0  0  0  0  0  0  0  0  0  0  0  0
   74.4020   44.2760   -3.2510 C   0  0  0  0  0  0  0  0  0  0  0  0
   73.3870   45.0450   -3.8480 C   0  0  0  0  0  0  0  0  0  0  0  0
   73.7680   46.3590   -4.5070 C   0  0  0  0  0  0  0  0  0  0  0  0
   74.1710   47.4660   -3.5560 C   0  0  0  0  0  0  0  0  0  0  0  0
   75.5280   47.7670   -3.3630 C   0  0  0  0  0  0  0  0  0  0  0  0
   75.9150   48.7670   -2.4710 C   0  0  0  0  0  0  0  0  0  0  0  0
   74.9520   49.4740   -1.7540 C   0  0  0  0  0  0  0  0  0  0  0  0
   73.6020   49.1770   -1.9250 C   0  0  0  0  0  0  0  0  0  0  0  0
   73.2130   48.1760   -2.8180 C   0  0  0  0  0  0  0  0  0  0  0  0
   70.2955   45.7562   -3.5879 H   0  0  0  0  0  0  0  0  0  0  0  0
   71.3031   46.1610   -5.0188 H   0  0  0  0  0  0  0  0  0  0  0  0
   70.3007   44.6704   -5.0188 H   0  0  0  0  0  0  0  0  0  0  0  0
   70.7493   42.9922   -3.1081 H   0  0  0  0  0  0  0  0  0  0  0  0
   68.6734   40.9481   -0.7578 H   0  0  0  0  0  0  0  0  0  0  0  0
   67.7366   38.9608    0.4283 H   0  0  0  0  0  0  0  0  0  0  0  0
   69.2121   37.0237    0.9761 H   0  0  0  0  0  0  0  0  0  0  0  0
   71.5130   35.9960    0.0690 H   0  0  0  0  0  0  0  0  0  0  0  0
   74.9850   41.0610   -2.6070 H   0  0  0  0  0  0  0  0  0  0  0  0
   74.9267   42.4826   -2.1610 H   0  0  0  0  0  0  0  0  0  0  0  0
   75.4410   44.6359   -3.2810 H   0  0  0  0  0  0  0  0  0  0  0  0
   74.6139   46.1673   -5.1836 H   0  0  0  0  0  0  0  0  0  0  0  0
   72.8637   46.7146   -5.0225 H   0  0  0  0  0  0  0  0  0  0  0  0
   76.2942   47.2087   -3.9208 H   0  0  0  0  0  0  0  0  0  0  0  0
   76.9817   48.9977   -2.3334 H   0  0  0  0  0  0  0  0  0  0  0  0
   75.2575   50.2656   -1.0539 H   0  0  0  0  0  0  0  0  0  0  0  0
   72.8412   49.7315   -1.3560 H   0  0  0  0  0  0  0  0  0  0  0  0
   72.1454   47.9424   -2.9435 H   0  0  0  0  0  0  0  0  0  0  0  0
  1  2  1  0
  2  3  2  0
  3  4  1  0
  4  5  1  0
  5  6  1  0
  6  7  1  0
  7  8  2  0
  8  9  1  0
  9 10  2  0
 10 11  1  0
 11 12  1  0
 11 13  2  0
 13 14  1  0
 14 15  2  0
 14 16  1  0
 16 17  1  0
  4 18  2  0
 18 19  1  0
 19 20  2  0
 20 21  1  0
 21 22  1  0
 22 23  2  0
 23 24  1  0
 24 25  2  0
 25 26  1  0
 26 27  2  0
 20  2  1  0
 27 22  1  0
 16  5  2  0
 13  7  1  0
  1 28  1  0
  1 29  1  0
  1 30  1  0
  3 31  1  0
  8 32  1  0
  9 33  1  0
 10 34  1  0
 12 35  1  0
 17 36  1  0
 18 37  1  0
 19 38  1  0
 21 39  1  0
 21 40  1  0
 23 41  1  0
 24 42  1  0
 25 43  1  0
 26 44  1  0
 27 45  1  0
M  END
>  <meeko>  (7) 
{"is_sidechain": [false], "free_energy": -8.016, "intermolecular_energy": -10.047, "internal_energy": -0.449}

$$$$
cand_002_out
     RDKit          3D

 45 48  0  0  0  0  0  0  0  0999 V2000
   74.4520   45.2570   -3.4170 C   0  0  0  0  0  0  0  0  0  0  0  0
   74.3210   43.7990   -3.0690 C   0  0  0  0  0  0  0  0  0  0  0  0
   73.0310   43.2640   -2.8890 C   0  0  0  0  0  0  0  0  0  0  0  0
   72.8300   41.9180   -2.5480 C   0  0  0  0  0  0  0  0  0  0  0  0
   71.4570   41.4070   -2.3480 C   0  0  0  0  0  0  0  0  0  0  0  0
   71.3320   40.6290   -1.2020 O   0  0  0  0  0  0  0  0  0  0  0  0
   70.1090   40.0910   -0.8950 C   0  0  0  0  0  0  0  0  0  0  0  0
   70.0330   39.3060    0.2560 C   0  0  0  0  0  0  0  0  0  0  0  0
   68.8160   38.7290    0.6270 C   0  0  0  0  0  0  0  0  0  0  0  0
   67.6770   38.9370   -0.1530 C   0  0  0  0  0  0  0  0  0  0  0  0
   67.7560   39.7210   -1.3010 C   0  0  0  0  0  0  0  0  0  0  0  0
   66.6010   39.8840   -2.0180 O   0  0  0  0  0  0  0  0  0  0  0  0
   68.9730   40.2970   -1.6720 C   0  0  0  0  0  0  0  0  0  0  0  0
   69.0990   41.1270   -2.8700 C   0  0  0  0  0  0  0  0  0  0  0  0
   68.1400   41.3620   -3.6040 O   0  0  0  0  0  0  0  0  0  0  0  0
   70.4360   41.6860   -3.1800 C   0  0  0  0  0  0  0  0  0  0  0  0
   70.5400   42.4800   -4.3070 O   0  0  0  0  0  0  0  0  0  0  0  0
   73.9510   41.1050   -2.3660 C   0  0  0  0  0  0  0  0  0  0  0  0
   75.2390   41.6220   -2.5290 C   0  0  0  0  0  0  0  0  0  0  0  0
   75.4430   42.9680   -2.8770 C   0  0  0  0  0  0  0  0  0  0  0  0
   76.8700   43.4690   -3.0270 C   0  0  0  0  0  0  0  0  0  0  0  0
   77.4170   43.4440   -4.4380 C   0  0  0  0  0  0  0  0  0  0  0  0
   78.0710   44.5710   -4.9580 C   0  0  0  0  0  0  0  0  0  0  0  0
   78.5590   44.5720   -6.2660 C   0  0  0  0  0  0  0  0  0  0  0  0
   78.3920   43.4490   -7.0740 C   0  0  0  0  0  0  0  0  0  0  0  0
   77.7330   42.3270   -6.5750 C   0  0  0  0  0  0  0  0  0  0  0  0
   77.2440   42.3250   -5.2670 C   0  0  0  0  0  0  0  0  0  0  0  0
   74.5054   45.8512   -2.4928 H   0  0  0  0  0  0  0  0  0  0  0  0
   75.3677   45.4125   -4.0063 H   0  0  0  0  0  0  0  0  0  0  0  0
   73.5787   45.5732   -4.0063 H   0  0  0  0  0  0  0  0  0  0  0  0
   72.1571   43.9192   -3.0193 H   0  0  0  0  0  0  0  0  0  0  0  0
   70.9303   39.1416    0.8706 H   0  0  0  0  0  0  0  0  0  0  0  0
   68.7552   38.1103    1.5345 H   0  0  0  0  0  0  0  0  0  0  0  0
   66.7188   38.4823    0.1388 H   0  0  0  0  0  0  0  0  0  0  0  0
   65.9110   39.2540   -1.9440 H   0  0  0  0  0  0  0  0  0  0  0  0
   71.3630   42.5590   -4.7490 H   0  0  0  0  0  0  0  0  0  0  0  0
   73.8188   40.0480   -2.0918 H   0  0  0  0  0  0  0  0  0  0  0  0
   76.1081   40.9639   -2.3824 H   0  0  0  0  0  0  0  0  0  0  0  0
   76.9056   44.5077   -2.6666 H   0  0  0  0  0  0  0  0  0  0  0  0
   77.4983   42.7797   -2.4439 H   0  0  0  0  0  0  0  0  0  0  0  0
   78.2007   45.4635   -4.3283 H   0  0  0  0  0  0  0  0  0  0  0  0
   79.0757   45.4599   -6.6591 H   0  0  0  0  0  0  0  0  0  0  0  0
   78.7795   43.4482   -8.1035 H   0  0  0  0  0  0  0  0  0  0  0  0
   77.5978   41.4411   -7.2128 H   0  0  0  0  0  0  0  0  0  0  0  0
   76.7184   41.4383   -4.8830 H   0  0  0  0  0  0  0  0  0  0  0  0
  1  2  1  0
  2  3  2  0
  3  4  1  0
  4  5  1  0
  5  6  1  0
  6  7  1  0
  7  8  2  0
  8  9  1  0
  9 10  2  0
 10 11  1  0
 11 12  1  0
 11 13  2  0
 13 14  1  0
 14 15  2  0
 14 16  1  0
 16 17  1  0
  4 18  2  0
 18 19  1  0
 19 20  2  0
 20 21  1  0
 21 22  1  0
 22 23  2  0
 23 24  1  0
 24 25  2  0
 25 26  1  0
 26 27  2  0
 20  2  1  0
 27 22  1  0
 16  5  2  0
 13  7  1  0
  1 28  1  0
  1 29  1  0
  1 30  1  0
  3 31  1  0
  8 32  1  0
  9 33  1  0
 10 34  1  0
 12 35  1  0
 17 36  1  0
 18 37  1  0
 19 38  1  0
 21 39  1  0
 21 40  1  0
 23 41  1  0
 24 42  1  0
 25 43  1  0
 26 44  1  0
 27 45  1  0
M  END
>  <meeko>  (8) 
{"is_sidechain": [false], "free_energy": -7.98, "intermolecular_energy": -9.88, "internal_energy": -0.571}

$$$$
cand_002_out
     RDKit          3D

 45 48  0  0  0  0  0  0  0  0999 V2000
   68.1590   45.4100   -3.3300 C   0  0  0  0  0  0  0  0  0  0  0  0
   69.0350   44.2460   -3.7030 C   0  0  0  0  0  0  0  0  0  0  0  0
   69.0820   43.1350   -2.8390 C   0  0  0  0  0  0  0  0  0  0  0  0
   69.8880   42.0190   -3.1110 C   0  0  0  0  0  0  0  0  0  0  0  0
   69.9210   40.8860   -2.1620 C   0  0  0  0  0  0  0  0  0  0  0  0
   71.1930   40.3470   -2.0090 O   0  0  0  0  0  0  0  0  0  0  0  0
   71.3680   39.2870   -1.1560 C   0  0  0  0  0  0  0  0  0  0  0  0
   72.6580   38.7690   -1.0440 C   0  0  0  0  0  0  0  0  0  0  0  0
   72.9040   37.6910   -0.1910 C   0  0  0  0  0  0  0  0  0  0  0  0
   71.8610   37.1320    0.5490 C   0  0  0  0  0  0  0  0  0  0  0  0
   70.5740   37.6510    0.4350 C   0  0  0  0  0  0  0  0  0  0  0  0
   69.5990   37.0560    1.1890 O   0  0  0  0  0  0  0  0  0  0  0  0
   70.3280   38.7290   -0.4190 C   0  0  0  0  0  0  0  0  0  0  0  0
   68.9910   39.3040   -0.5680 C   0  0  0  0  0  0  0  0  0  0  0  0
   68.0230   38.8710    0.0550 O   0  0  0  0  0  0  0  0  0  0  0  0
   68.8340   40.4410   -1.5040 C   0  0  0  0  0  0  0  0  0  0  0  0
   67.5690   40.9860   -1.6270 O   0  0  0  0  0  0  0  0  0  0  0  0
   70.6750   42.0360   -4.2650 C   0  0  0  0  0  0  0  0  0  0  0  0
   70.6510   43.1340   -5.1280 C   0  0  0  0  0  0  0  0  0  0  0  0
   69.8390   44.2510   -4.8610 C   0  0  0  0  0  0  0  0  0  0  0  0
   69.8670   45.4160   -5.8350 C   0  0  0  0  0  0  0  0  0  0  0  0
   68.7300   45.4520   -6.8330 C   0  0  0  0  0  0  0  0  0  0  0  0
   68.2970   46.6780   -7.3600 C   0  0  0  0  0  0  0  0  0  0  0  0
   67.2320   46.7290   -8.2610 C   0  0  0  0  0  0  0  0  0  0  0  0
   66.5820   45.5560   -8.6410 C   0  0  0  0  0  0  0  0  0  0  0  0
   66.9930   44.3330   -8.1150 C   0  0  0  0  0  0  0  0  0  0  0  0
   68.0580   44.2810   -7.2130 C   0  0  0  0  0  0  0  0  0  0  0  0
   68.1001   45.4883   -2.2344 H   0  0  0  0  0  0  0  0  0  0  0  0
   68.5857   46.3367   -3.7414 H   0  0  0  0  0  0  0  0  0  0  0  0
   67.1504   45.2565   -3.7414 H   0  0  0  0  0  0  0  0  0  0  0  0
   68.4697   43.1422   -1.9252 H   0  0  0  0  0  0  0  0  0  0  0  0
   73.4806   39.2090   -1.6268 H   0  0  0  0  0  0  0  0  0  0  0  0
   73.9212   37.2819   -0.1022 H   0  0  0  0  0  0  0  0  0  0  0  0
   72.0553   36.2831    1.2210 H   0  0  0  0  0  0  0  0  0  0  0  0
   69.4130   36.1440    1.0790 H   0  0  0  0  0  0  0  0  0  0  0  0
   67.4390   41.7570   -2.1440 H   0  0  0  0  0  0  0  0  0  0  0  0
   71.3203   41.1758   -4.4965 H   0  0  0  0  0  0  0  0  0  0  0  0
   71.2778   43.1250   -6.0319 H   0  0  0  0  0  0  0  0  0  0  0  0
   69.8364   46.3478   -5.2512 H   0  0  0  0  0  0  0  0  0  0  0  0
   70.7869   45.2962   -6.4261 H   0  0  0  0  0  0  0  0  0  0  0  0
   68.8017   47.6083   -7.0602 H   0  0  0  0  0  0  0  0  0  0  0  0
   66.9054   47.6959   -8.6715 H   0  0  0  0  0  0  0  0  0  0  0  0
   65.7461   45.5958   -9.3549 H   0  0  0  0  0  0  0  0  0  0  0  0
   66.4779   43.4071   -8.4106 H   0  0  0  0  0  0  0  0  0  0  0  0
   68.3727   43.3127   -6.7967 H   0  0  0  0  0  0  0  0  0  0  0  0
  1  2  1  0
  2  3  2  0
  3  4  1  0
  4  5  1  0
  5  6  1  0
  6  7  1  0
  7  8  2  0
  8  9  1  0
  9 10  2  0
 10 11  1  0
 11 12  1  0
 11 13  2  0
 13 14  1  0
 14 15  2  0
 14 16  1  0
 16 17  1  0
  4 18  2  0
 18 19  1  0
 19 20  2  0
 20 21  1  0
 21 22  1  0
 22 23  2  0
 23 24  1  0
 24 25  2  0
 25 26  1  0
 26 27  2  0
 20  2  1  0
 27 22  1  0
 16  5  2  0
 13  7  1  0
  1 28  1  0
  1 29  1  0
  1 30  1  0
  3 31  1  0
  8 32  1  0
  9 33  1  0
 10 34  1  0
 12 35  1  0
 17 36  1  0
 18 37  1  0
 19 38  1  0
 21 39  1  0
 21 40  1  0
 23 41  1  0
 24 42  1  0
 25 43  1  0
 26 44  1  0
 27 45  1  0
M  END
>  <meeko>  (9) 
{"is_sidechain": [false], "free_energy": -7.969, "intermolecular_energy": -9.937, "internal_energy": -0.501}

$$$$
