kaempferol_out
     RDKit          3D

 31 33  0  0  0  0  0  0  0  0999 V2000
  180.5900   21.7110   48.0540 O   0  0  0  0  0  0  0  0  0  0  0  0
  179.9060   20.8430   47.5160 C   0  0  0  0  0  0  0  0  0  0  0  0
  180.5290   19.8350   46.6290 C   0  0  0  0  0  0  0  0  0  0  0  0
  181.8990   19.9140   46.4520 O   0  0  0  0  0  0  0  0  0  0  0  0
  179.7420   18.9010   46.0640 C   0  0  0  0  0  0  0  0  0  0  0  0
  180.2550   17.8380   45.1730 C   0  0  0  0  0  0  0  0  0  0  0  0
  181.1310   18.1190   44.1130 C   0  0  0  0  0  0  0  0  0  0  0  0
  181.5860   17.1020   43.2680 C   0  0  0  0  0  0  0  0  0  0  0  0
  181.1560   15.7970   43.4760 C   0  0  0  0  0  0  0  0  0  0  0  0
  181.5740   14.7750   42.6770 O   0  0  0  0  0  0  0  0  0  0  0  0
  180.2820   15.4940   44.5100 C   0  0  0  0  0  0  0  0  0  0  0  0
  179.8290   16.5120   45.3550 C   0  0  0  0  0  0  0  0  0  0  0  0
  178.3690   18.8170   46.2710 O   0  0  0  0  0  0  0  0  0  0  0  0
  177.7620   19.7410   47.0820 C   0  0  0  0  0  0  0  0  0  0  0  0
  176.3830   19.6270   47.2530 C   0  0  0  0  0  0  0  0  0  0  0  0
  175.7150   20.5370   48.0670 C   0  0  0  0  0  0  0  0  0  0  0  0
  174.3670   20.3900   48.2080 O   0  0  0  0  0  0  0  0  0  0  0  0
  176.4020   21.5620   48.7140 C   0  0  0  0  0  0  0  0  0  0  0  0
  177.7790   21.6710   48.5390 C   0  0  0  0  0  0  0  0  0  0  0  0
  178.4040   22.6960   49.1980 O   0  0  0  0  0  0  0  0  0  0  0  0
  178.4590   20.7610   47.7230 C   0  0  0  0  0  0  0  0  0  0  0  0
  182.2710   20.6450   46.0000 H   0  0  0  0  0  0  0  0  0  0  0  0
  181.4643   19.1537   43.9446 H   0  0  0  0  0  0  0  0  0  0  0  0
  182.2787   17.3331   42.4453 H   0  0  0  0  0  0  0  0  0  0  0  0
  182.2070   14.9350   42.0040 H   0  0  0  0  0  0  0  0  0  0  0  0
  179.9469   14.4577   44.6644 H   0  0  0  0  0  0  0  0  0  0  0  0
  179.1315   16.2717   46.1710 H   0  0  0  0  0  0  0  0  0  0  0  0
  175.8269   18.8234   46.7481 H   0  0  0  0  0  0  0  0  0  0  0  0
  174.0060   20.1590   49.0420 H   0  0  0  0  0  0  0  0  0  0  0  0
  175.8635   22.2758   49.3547 H   0  0  0  0  0  0  0  0  0  0  0  0
  177.8970   23.3410   49.6490 H   0  0  0  0  0  0  0  0  0  0  0  0
  1  2  2  0
  2  3  1  0
  3  4  1  0
  3  5  2  0
  5  6  1  0
  6  7  2  0
  7  8  1  0
  8  9  2  0
  9 10  1  0
  9 11  1  0
 11 12  2  0
  5 13  1  0
 13 14  1  0
 14 15  2  0
 15 16  1  0
 16 17  1  0
 16 18  2  0
 18 19  1  0
 19 20  1  0
 19 21  2  0
 21  2  1  0
 12  6  1  0
 21 14  1  0
  4 22  1  0
  7 23  1  0
  8 24  1  0
 10 25  1  0
 11 26  1  0
 12 27  1  0
 15 28  1  0
 17 29  1  0
 18 30  1  0
 20 31  1  0
M  END
>  <meeko>  (1) 
{"is_sidechain": [false], "free_energy": -7.731, "intermolecular_energy": -9.087, "internal_energy": -0.024}

$$$$
kaempferol_out
     RDKit          3D

 31 33  0  0  0  0  0  0  0  0999 V2000
  179.4110   23.6650   49.1330 O   0  0  0  0  0  0  0  0  0  0  0  0
  178.9590   22.7260   48.4810 C   0  0  0  0  0  0  0  0  0  0  0  0
  179.8540   21.8760   47.6630 C   0  0  0  0  0  0  0  0  0  0  0  0
  181.2020   22.1820   47.6830 O   0  0  0  0  0  0  0  0  0  0  0  0
  179.3150   20.8570   46.9680 C   0  0  0  0  0  0  0  0  0  0  0  0
  180.1120   19.9350   46.1290 C   0  0  0  0  0  0  0  0  0  0  0  0
  181.3590   20.3060   45.6020 C   0  0  0  0  0  0  0  0  0  0  0  0
  182.0850   19.4280   44.7920 C   0  0  0  0  0  0  0  0  0  0  0  0
  181.5600   18.1740   44.4990 C   0  0  0  0  0  0  0  0  0  0  0  0
  182.2340   17.2870   43.7150 O   0  0  0  0  0  0  0  0  0  0  0  0
  180.3250   17.7880   45.0000 C   0  0  0  0  0  0  0  0  0  0  0  0
  179.6000   18.6670   45.8100 C   0  0  0  0  0  0  0  0  0  0  0  0
  177.9600   20.5440   46.9770 O   0  0  0  0  0  0  0  0  0  0  0  0
  177.1050   21.3170   47.7200 C   0  0  0  0  0  0  0  0  0  0  0  0
  175.7530   20.9760   47.6930 C   0  0  0  0  0  0  0  0  0  0  0  0
  174.8410   21.7260   48.4290 C   0  0  0  0  0  0  0  0  0  0  0  0
  173.5300   21.3580   48.3750 O   0  0  0  0  0  0  0  0  0  0  0  0
  175.2560   22.8140   49.1940 C   0  0  0  0  0  0  0  0  0  0  0  0
  176.6060   23.1510   49.2170 C   0  0  0  0  0  0  0  0  0  0  0  0
  176.9590   24.2280   49.9840 O   0  0  0  0  0  0  0  0  0  0  0  0
  177.5310   22.4020   48.4800 C   0  0  0  0  0  0  0  0  0  0  0  0
  181.7750   21.7350   48.2750 H   0  0  0  0  0  0  0  0  0  0  0  0
  181.7702   21.3006   45.8294 H   0  0  0  0  0  0  0  0  0  0  0  0
  183.0641   19.7267   44.3894 H   0  0  0  0  0  0  0  0  0  0  0  0
  182.1890   17.3580   42.7810 H   0  0  0  0  0  0  0  0  0  0  0  0
  179.9180   16.7944   44.7608 H   0  0  0  0  0  0  0  0  0  0  0  0
  178.6183   18.3622   46.2015 H   0  0  0  0  0  0  0  0  0  0  0  0
  175.4099   20.1197   47.0938 H   0  0  0  0  0  0  0  0  0  0  0  0
  173.0910   21.0740   49.1530 H   0  0  0  0  0  0  0  0  0  0  0  0
  174.5259   23.3991   49.7724 H   0  0  0  0  0  0  0  0  0  0  0  0
  176.5340   24.3770   50.8060 H   0  0  0  0  0  0  0  0  0  0  0  0
  1  2  2  0
  2  3  1  0
  3  4  1  0
  3  5  2  0
  5  6  1  0
  6  7  2  0
  7  8  1  0
  8  9  2  0
  9 10  1  0
  9 11  1  0
 11 12  2  0
  5 13  1  0
 13 14  1  0
 14 15  2  0
 15 16  1  0
 16 17  1  0
 16 18  2  0
 18 19  1  0
 19 20  1  0
 19 21  2  0
 21  2  1  0
 12  6  1  0
 21 14  1  0
  4 22  1  0
  7 23  1  0
  8 24  1  0
 10 25  1  0
 11 26  1  0
 12 27  1  0
 15 28  1  0
 17 29  1  0
 18 30  1  0
 20 31  1  0
M  END
>  <meeko>  (2) 
{"is_sidechain": [false], "free_energy": -7.317, "intermolecular_energy": -8.862, "internal_energy": 0.237}

$$$$
kaempferol_out
     RDKit          3D

 31 33  0  0  0  0  0  0  0  0999 V2000
  181.9960   21.1960   46.4460 O   0  0  0  0  0  0  0  0  0  0  0  0
  181.1550   20.3400   46.1780 C   0  0  0  0  0  0  0  0  0  0  0  0
  181.4790   19.2300   45.2540 C   0  0  0  0  0  0  0  0  0  0  0  0
  182.7580   19.2020   44.7290 O   0  0  0  0  0  0  0  0  0  0  0  0
  180.5290   18.3140   44.9910 C   0  0  0  0  0  0  0  0  0  0  0  0
  180.7420   17.1550   44.0970 C   0  0  0  0  0  0  0  0  0  0  0  0
  180.7240   15.8370   44.5780 C   0  0  0  0  0  0  0  0  0  0  0  0
  180.9510   14.7570   43.7190 C   0  0  0  0  0  0  0  0  0  0  0  0
  181.2060   14.9940   42.3730 C   0  0  0  0  0  0  0  0  0  0  0  0
  181.4320   13.9720   41.5010 O   0  0  0  0  0  0  0  0  0  0  0  0
  181.2390   16.2890   41.8760 C   0  0  0  0  0  0  0  0  0  0  0  0
  181.0110   17.3680   42.7350 C   0  0  0  0  0  0  0  0  0  0  0  0
  179.2540   18.3390   45.5470 O   0  0  0  0  0  0  0  0  0  0  0  0
  178.9210   19.3590   46.4020 C   0  0  0  0  0  0  0  0  0  0  0  0
  177.6300   19.3530   46.9270 C   0  0  0  0  0  0  0  0  0  0  0  0
  177.2400   20.3630   47.8010 C   0  0  0  0  0  0  0  0  0  0  0  0
  175.9690   20.3200   48.2910 O   0  0  0  0  0  0  0  0  0  0  0  0
  178.1190   21.3830   48.1590 C   0  0  0  0  0  0  0  0  0  0  0  0
  179.4070   21.3840   47.6310 C   0  0  0  0  0  0  0  0  0  0  0  0
  180.2290   22.4090   48.0170 O   0  0  0  0  0  0  0  0  0  0  0  0
  179.8090   20.3720   46.7520 C   0  0  0  0  0  0  0  0  0  0  0  0
  182.9630   19.7090   43.9680 H   0  0  0  0  0  0  0  0  0  0  0  0
  180.5288   15.6508   45.6444 H   0  0  0  0  0  0  0  0  0  0  0  0
  180.9280   13.7274   44.1055 H   0  0  0  0  0  0  0  0  0  0  0  0
  182.2920   13.8330   41.1540 H   0  0  0  0  0  0  0  0  0  0  0  0
  181.4438   16.4660   40.8098 H   0  0  0  0  0  0  0  0  0  0  0  0
  181.0426   18.3943   42.3403 H   0  0  0  0  0  0  0  0  0  0  0  0
  176.9242   18.5553   46.6523 H   0  0  0  0  0  0  0  0  0  0  0  0
  175.2890   20.8120   47.8750 H   0  0  0  0  0  0  0  0  0  0  0  0
  177.7994   22.1771   48.8498 H   0  0  0  0  0  0  0  0  0  0  0  0
  181.0150   22.2250   48.4930 H   0  0  0  0  0  0  0  0  0  0  0  0
  1  2  2  0
  2  3  1  0
  3  4  1  0
  3  5  2  0
  5  6  1  0
  6  7  2  0
  7  8  1  0
  8  9  2  0
  9 10  1  0
  9 11  1  0
 11 12  2  0
  5 13  1  0
 13 14  1  0
 14 15  2  0
 15 16  1  0
 16 17  1  0
 16 18  2  0
 18 19  1  0
 19 20  1  0
 19 21  2  0
 21  2  1  0
 12  6  1  0
 21 14  1  0
  4 22  1  0
  7 23  1  0
  8 24  1  0
 10 25  1  0
 11 26  1  0
 12 27  1  0
 15 28  1  0
 17 29  1  0
 18 30  1  0
 20 31  1  0
M  END
>  <meeko>  (3) 
{"is_sidechain": [false], "free_energy": -7.311, "intermolecular_energy": -8.455, "internal_energy": -0.163}

$$$$
kaempferol_out
     RDKit          3D

 31 33  0  0  0  0  0  0  0  0999 V2000
  174.7610   19.4750   47.5260 O   0  0  0  0  0  0  0  0  0  0  0  0
  175.8800   19.9750   47.4310 C   0  0  0  0  0  0  0  0  0  0  0  0
  176.9520   19.2850   46.6790 C   0  0  0  0  0  0  0  0  0  0  0  0
  176.6280   18.0760   46.0890 O   0  0  0  0  0  0  0  0  0  0  0  0
  178.1610   19.8700   46.5990 C   0  0  0  0  0  0  0  0  0  0  0  0
  179.3020   19.2810   45.8640 C   0  0  0  0  0  0  0  0  0  0  0  0
  179.3880   17.9030   45.6150 C   0  0  0  0  0  0  0  0  0  0  0  0
  180.4870   17.3630   44.9380 C   0  0  0  0  0  0  0  0  0  0  0  0
  181.5100   18.2030   44.5160 C   0  0  0  0  0  0  0  0  0  0  0  0
  182.5990   17.7200   43.8530 O   0  0  0  0  0  0  0  0  0  0  0  0
  181.4530   19.5680   44.7600 C   0  0  0  0  0  0  0  0  0  0  0  0
  180.3540   20.1060   45.4350 C   0  0  0  0  0  0  0  0  0  0  0  0
  178.4670   21.0990   47.1750 O   0  0  0  0  0  0  0  0  0  0  0  0
  177.4960   21.7600   47.8840 C   0  0  0  0  0  0  0  0  0  0  0  0
  177.8480   22.9830   48.4540 C   0  0  0  0  0  0  0  0  0  0  0  0
  176.9010   23.6970   49.1830 C   0  0  0  0  0  0  0  0  0  0  0  0
  177.2860   24.8880   49.7240 O   0  0  0  0  0  0  0  0  0  0  0  0
  175.6070   23.2090   49.3540 C   0  0  0  0  0  0  0  0  0  0  0  0
  175.2620   21.9870   48.7820 C   0  0  0  0  0  0  0  0  0  0  0  0
  173.9780   21.5560   48.9800 O   0  0  0  0  0  0  0  0  0  0  0  0
  176.2060   21.2620   48.0470 C   0  0  0  0  0  0  0  0  0  0  0  0
  176.9740   17.8600   45.2460 H   0  0  0  0  0  0  0  0  0  0  0  0
  178.5808   17.2383   45.9565 H   0  0  0  0  0  0  0  0  0  0  0  0
  180.5406   16.2820   44.7415 H   0  0  0  0  0  0  0  0  0  0  0  0
  183.4060   18.1970   43.8680 H   0  0  0  0  0  0  0  0  0  0  0  0
  182.2695   20.2237   44.4235 H   0  0  0  0  0  0  0  0  0  0  0  0
  180.3127   21.1874   45.6323 H   0  0  0  0  0  0  0  0  0  0  0  0
  178.8660   23.3805   48.3286 H   0  0  0  0  0  0  0  0  0  0  0  0
  176.6430   25.4680   50.0810 H   0  0  0  0  0  0  0  0  0  0  0  0
  174.8676   23.7815   49.9333 H   0  0  0  0  0  0  0  0  0  0  0  0
  173.6080   21.5650   49.8410 H   0  0  0  0  0  0  0  0  0  0  0  0
  1  2  2  0
  2  3  1  0
  3  4  1  0
  3  5  2  0
  5  6  1  0
  6  7  2  0
  7  8  1  0
  8  9  2  0
  9 10  1  0
  9 11  1  0
 11 12  2  0
  5 13  1  0
 13 14  1  0
 14 15  2  0
 15 16  1  0
 16 17  1  0
 16 18  2  0
 18 19  1  0
 19 20  1  0
 19 21  2  0
 21  2  1  0
 12  6  1  0
 21 14  1  0
  4 22  1  0
  7 23  1  0
  8 24  1  0
 10 25  1  0
 11 26  1  0
 12 27  1  0
 15 28  1  0
 17 29  1  0
 18 30  1  0
 20 31  1  0
M  END
>  <meeko>  (4) 
{"is_sidechain": [false], "free_energy": -7.051, "intermolecular_energy": -8.549, "internal_energy": 0.237}

$$$$
kaempferol_out
     RDKit          3D

 31 33  0  0  0  0  0  0  0  0999 V2000
  177.1560   22.7710   49.5920 O   0  0  0  0  0  0  0  0  0  0  0  0
  177.6060   22.0110   48.7380 C   0  0  0  0  0  0  0  0  0  0  0  0
  178.9800   22.1930   48.2160 C   0  0  0  0  0  0  0  0  0  0  0  0
  179.7180   23.2380   48.7410 O   0  0  0  0  0  0  0  0  0  0  0  0
  179.4330   21.3340   47.2840 C   0  0  0  0  0  0  0  0  0  0  0  0
  180.7900   21.4100   46.7010 C   0  0  0  0  0  0  0  0  0  0  0  0
  181.7570   22.3000   47.1930 C   0  0  0  0  0  0  0  0  0  0  0  0
  183.0270   22.3730   46.6130 C   0  0  0  0  0  0  0  0  0  0  0  0
  183.3320   21.5580   45.5290 C   0  0  0  0  0  0  0  0  0  0  0  0
  184.5570   21.5950   44.9330 O   0  0  0  0  0  0  0  0  0  0  0  0
  182.3890   20.6770   45.0170 C   0  0  0  0  0  0  0  0  0  0  0  0
  181.1200   20.6050   45.5990 C   0  0  0  0  0  0  0  0  0  0  0  0
  178.6890   20.2710   46.7830 O   0  0  0  0  0  0  0  0  0  0  0  0
  177.4110   20.0800   47.2420 C   0  0  0  0  0  0  0  0  0  0  0  0
  176.6960   19.0100   46.7060 C   0  0  0  0  0  0  0  0  0  0  0  0
  175.3950   18.7690   47.1370 C   0  0  0  0  0  0  0  0  0  0  0  0
  174.7320   17.7130   46.5880 O   0  0  0  0  0  0  0  0  0  0  0  0
  174.7930   19.5810   48.0960 C   0  0  0  0  0  0  0  0  0  0  0  0
  175.5110   20.6490   48.6280 C   0  0  0  0  0  0  0  0  0  0  0  0
  174.8730   21.4130   49.5670 O   0  0  0  0  0  0  0  0  0  0  0  0
  176.8200   20.8980   48.2020 C   0  0  0  0  0  0  0  0  0  0  0  0
  180.6150   23.1040   48.9770 H   0  0  0  0  0  0  0  0  0  0  0  0
  181.5124   22.9491   48.0467 H   0  0  0  0  0  0  0  0  0  0  0  0
  183.7790   23.0700   47.0114 H   0  0  0  0  0  0  0  0  0  0  0  0
  184.7600   20.9960   44.2400 H   0  0  0  0  0  0  0  0  0  0  0  0
  182.6393   20.0384   44.1571 H   0  0  0  0  0  0  0  0  0  0  0  0
  180.3720   19.9103   45.1892 H   0  0  0  0  0  0  0  0  0  0  0  0
  177.1572   18.3605   45.9474 H   0  0  0  0  0  0  0  0  0  0  0  0
  175.1290   17.2190   45.8970 H   0  0  0  0  0  0  0  0  0  0  0  0
  173.7637   19.3810   48.4286 H   0  0  0  0  0  0  0  0  0  0  0  0
  175.2650   21.5500   50.4060 H   0  0  0  0  0  0  0  0  0  0  0  0
  1  2  2  0
  2  3  1  0
  3  4  1  0
  3  5  2  0
  5  6  1  0
  6  7  2  0
  7  8  1  0
  8  9  2  0
  9 10  1  0
  9 11  1  0
 11 12  2  0
  5 13  1  0
 13 14  1  0
 14 15  2  0
 15 16  1  0
 16 17  1  0
 16 18  2  0
 18 19  1  0
 19 20  1  0
 19 21  2  0
 21  2  1  0
 12  6  1  0
 21 14  1  0
  4 22  1  0
  7 23  1  0
  8 24  1  0
 10 25  1  0
 11 26  1  0
 12 27  1  0
 15 28  1  0
 17 29  1  0
 18 30  1  0
 20 31  1  0
M  END
>  <meeko>  (5) 
{"is_sidechain": [false], "free_energy": -6.33, "intermolecular_energy": -7.806, "internal_energy": 0.342}

$$$$
kaempferol_out
     RDKit          3D

 31 33  0  0  0  0  0  0  0  0999 V2000
  178.7550   18.0570   45.7740 O   0  0  0  0  0  0  0  0  0  0  0  0
  178.9600   19.1820   46.2250 C   0  0  0  0  0  0  0  0  0  0  0  0
  177.9050   19.8940   46.9810 C   0  0  0  0  0  0  0  0  0  0  0  0
  176.7040   19.2330   47.1600 O   0  0  0  0  0  0  0  0  0  0  0  0
  178.1750   21.1230   47.4590 C   0  0  0  0  0  0  0  0  0  0  0  0
  177.2060   21.9230   48.2380 C   0  0  0  0  0  0  0  0  0  0  0  0
  176.1760   21.3200   48.9780 C   0  0  0  0  0  0  0  0  0  0  0  0
  175.2550   22.0960   49.6900 C   0  0  0  0  0  0  0  0  0  0  0  0
  175.3570   23.4820   49.6560 C   0  0  0  0  0  0  0  0  0  0  0  0
  174.4820   24.2750   50.3350 O   0  0  0  0  0  0  0  0  0  0  0  0
  176.3600   24.1010   48.9240 C   0  0  0  0  0  0  0  0  0  0  0  0
  177.2800   23.3250   48.2140 C   0  0  0  0  0  0  0  0  0  0  0  0
  179.3970   21.7670   47.2940 O   0  0  0  0  0  0  0  0  0  0  0  0
  180.3920   21.1350   46.5930 C   0  0  0  0  0  0  0  0  0  0  0  0
  181.5970   21.8200   46.4430 C   0  0  0  0  0  0  0  0  0  0  0  0
  182.6420   21.2250   45.7410 C   0  0  0  0  0  0  0  0  0  0  0  0
  183.8020   21.9290   45.6170 O   0  0  0  0  0  0  0  0  0  0  0  0
  182.5030   19.9550   45.1860 C   0  0  0  0  0  0  0  0  0  0  0  0
  181.2970   19.2760   45.3390 C   0  0  0  0  0  0  0  0  0  0  0  0
  181.2160   18.0320   44.7740 O   0  0  0  0  0  0  0  0  0  0  0  0
  180.2420   19.8650   46.0430 C   0  0  0  0  0  0  0  0  0  0  0  0
  176.6030   18.3550   46.8480 H   0  0  0  0  0  0  0  0  0  0  0  0
  176.0922   20.2234   48.9981 H   0  0  0  0  0  0  0  0  0  0  0  0
  174.4563   21.6131   50.2722 H   0  0  0  0  0  0  0  0  0  0  0  0
  174.4010   25.1830   50.1120 H   0  0  0  0  0  0  0  0  0  0  0  0
  176.4307   25.1985   48.9026 H   0  0  0  0  0  0  0  0  0  0  0  0
  178.0710   23.8180   47.6298 H   0  0  0  0  0  0  0  0  0  0  0  0
  181.7213   22.8234   46.8762 H   0  0  0  0  0  0  0  0  0  0  0  0
  184.4890   21.6060   45.0660 H   0  0  0  0  0  0  0  0  0  0  0  0
  183.3354   19.4943   44.6338 H   0  0  0  0  0  0  0  0  0  0  0  0
  180.8370   17.9270   43.9230 H   0  0  0  0  0  0  0  0  0  0  0  0
  1  2  2  0
  2  3  1  0
  3  4  1  0
  3  5  2  0
  5  6  1  0
  6  7  2  0
  7  8  1  0
  8  9  2  0
  9 10  1  0
  9 11  1  0
 11 12  2  0
  5 13  1  0
 13 14  1  0
 14 15  2  0
 15 16  1  0
 16 17  1  0
 16 18  2  0
 18 19  1  0
 19 20  1  0
 19 21  2  0
 21  2  1  0
 12  6  1  0
 21 14  1  0
  4 22  1  0
  7 23  1  0
  8 24  1  0
 10 25  1  0
 11 26  1  0
 12 27  1  0
 15 28  1  0
 17 29  1  0
 18 30  1  0
 20 31  1  0
M  END
>  <meeko>  (6) 
{"is_sidechain": [false], "free_energy": -6.296, "intermolecular_energy": -7.642, "internal_energy": 0.218}

$$$$
kaempferol_out
     RDKit          3D

 31 33  0  0  0  0  0  0  0  0999 V2000
  182.1510   22.2280   46.9640 O   0  0  0  0  0  0  0  0  0  0  0  0
  181.1830   21.4740   46.8870 C   0  0  0  0  0  0  0  0  0  0  0  0
  179.9630   21.7310   47.6850 C   0  0  0  0  0  0  0  0  0  0  0  0
  179.9670   22.8500   48.4980 O   0  0  0  0  0  0  0  0  0  0  0  0
  178.9260   20.8820   47.5660 C   0  0  0  0  0  0  0  0  0  0  0  0
  177.6530   21.0450   48.3020 C   0  0  0  0  0  0  0  0  0  0  0  0
  176.5550   21.7160   47.7410 C   0  0  0  0  0  0  0  0  0  0  0  0
  175.3690   21.8800   48.4630 C   0  0  0  0  0  0  0  0  0  0  0  0
  175.2800   21.3790   49.7560 C   0  0  0  0  0  0  0  0  0  0  0  0
  174.1440   21.5160   50.4950 O   0  0  0  0  0  0  0  0  0  0  0  0
  176.3550   20.7210   50.3370 C   0  0  0  0  0  0  0  0  0  0  0  0
  177.5400   20.5570   49.6140 C   0  0  0  0  0  0  0  0  0  0  0  0
  178.9250   19.7740   46.7250 O   0  0  0  0  0  0  0  0  0  0  0  0
  180.0430   19.5060   45.9780 C   0  0  0  0  0  0  0  0  0  0  0  0
  180.0030   18.3800   45.1570 C   0  0  0  0  0  0  0  0  0  0  0  0
  181.1100   18.0610   44.3760 C   0  0  0  0  0  0  0  0  0  0  0  0
  181.0300   16.9520   43.5870 O   0  0  0  0  0  0  0  0  0  0  0  0
  182.2580   18.8490   44.4000 C   0  0  0  0  0  0  0  0  0  0  0  0
  182.2920   19.9730   45.2220 C   0  0  0  0  0  0  0  0  0  0  0  0
  183.4450   20.7110   45.2080 O   0  0  0  0  0  0  0  0  0  0  0  0
  181.1840   20.3010   46.0110 C   0  0  0  0  0  0  0  0  0  0  0  0
  179.1570   23.2210   48.7880 H   0  0  0  0  0  0  0  0  0  0  0  0
  176.6287   22.1181   46.7198 H   0  0  0  0  0  0  0  0  0  0  0  0
  174.5127   22.4018   48.0108 H   0  0  0  0  0  0  0  0  0  0  0  0
  174.1390   21.2670   51.3990 H   0  0  0  0  0  0  0  0  0  0  0  0
  176.2748   20.3302   51.3621 H   0  0  0  0  0  0  0  0  0  0  0  0
  178.3932   20.0402   50.0777 H   0  0  0  0  0  0  0  0  0  0  0  0
  179.1030   17.7482   45.1267 H   0  0  0  0  0  0  0  0  0  0  0  0
  181.4740   16.9320   42.7620 H   0  0  0  0  0  0  0  0  0  0  0  0
  183.1266   18.5872   43.7779 H   0  0  0  0  0  0  0  0  0  0  0  0
  184.2610   20.3020   45.0010 H   0  0  0  0  0  0  0  0  0  0  0  0
  1  2  2  0
  2  3  1  0
  3  4  1  0
  3  5  2  0
  5  6  1  0
  6  7  2  0
  7  8  1  0
  8  9  2  0
  9 10  1  0
  9 11  1  0
 11 12  2  0
  5 13  1  0
 13 14  1  0
 14 15  2  0
 15 16  1  0
 16 17  1  0
 16 18  2  0
 18 19  1  0
 19 20  1  0
 19 21  2  0
 21  2  1  0
 12  6  1  0
 21 14  1  0
  4 22  1  0
  7 23  1  0
  8 24  1  0
 10 25  1  0
 11 26  1  0
 12 27  1  0
 15 28  1  0
 17 29  1  0
 18 30  1  0
 20 31  1  0
M  END
>  <meeko>  (7) 
{"is_sidechain": [false], "free_energy": -6.228, "intermolecular_energy": -7.053, "internal_energy": -0.291}

$$$$
kaempferol_out
     RDKit          3D

 31 33  0  0  0  0  0  0  0  0999 V2000
  181.9440   20.5820   45.0810 O   0  0  0  0  0  0  0  0  0  0  0  0
  181.0070   19.8650   45.4260 C   0  0  0  0  0  0  0  0  0  0  0  0
  179.9320   20.3960   46.2950 C   0  0  0  0  0  0  0  0  0  0  0  0
  180.0310   21.7210   46.6790 O   0  0  0  0  0  0  0  0  0  0  0  0
  178.9240   19.5760   46.6450 C   0  0  0  0  0  0  0  0  0  0  0  0
  177.7910   19.9990   47.4960 C   0  0  0  0  0  0  0  0  0  0  0  0
  177.9650   20.8780   48.5760 C   0  0  0  0  0  0  0  0  0  0  0  0
  176.8840   21.2480   49.3830 C   0  0  0  0  0  0  0  0  0  0  0  0
  175.6220   20.7300   49.1150 C   0  0  0  0  0  0  0  0  0  0  0  0
  174.5410   21.0630   49.8750 O   0  0  0  0  0  0  0  0  0  0  0  0
  175.4260   19.8500   48.0600 C   0  0  0  0  0  0  0  0  0  0  0  0
  176.5070   19.4830   47.2540 C   0  0  0  0  0  0  0  0  0  0  0  0
  178.8230   18.2520   46.2300 O   0  0  0  0  0  0  0  0  0  0  0  0
  179.8070   17.7290   45.4300 C   0  0  0  0  0  0  0  0  0  0  0  0
  179.6720   16.3960   45.0470 C   0  0  0  0  0  0  0  0  0  0  0  0
  180.6410   15.8150   44.2340 C   0  0  0  0  0  0  0  0  0  0  0  0
  180.4710   14.5090   43.8820 O   0  0  0  0  0  0  0  0  0  0  0  0
  181.7450   16.5440   43.7970 C   0  0  0  0  0  0  0  0  0  0  0  0
  181.8740   17.8750   44.1840 C   0  0  0  0  0  0  0  0  0  0  0  0
  182.9770   18.5450   43.7260 O   0  0  0  0  0  0  0  0  0  0  0  0
  180.9050   18.4690   45.0000 C   0  0  0  0  0  0  0  0  0  0  0  0
  180.8470   22.1740   46.5930 H   0  0  0  0  0  0  0  0  0  0  0  0
  178.9654   21.2817   48.7910 H   0  0  0  0  0  0  0  0  0  0  0  0
  177.0312   21.9431   50.2227 H   0  0  0  0  0  0  0  0  0  0  0  0
  174.4150   20.6620   50.7130 H   0  0  0  0  0  0  0  0  0  0  0  0
  174.4240   19.4431   47.8590 H   0  0  0  0  0  0  0  0  0  0  0  0
  176.3507   18.7822   46.4207 H   0  0  0  0  0  0  0  0  0  0  0  0
  178.8062   15.8074   45.3846 H   0  0  0  0  0  0  0  0  0  0  0  0
  181.1860   14.0260   43.5150 H   0  0  0  0  0  0  0  0  0  0  0  0
  182.5045   16.0741   43.1548 H   0  0  0  0  0  0  0  0  0  0  0  0
  183.5560   18.1320   43.1160 H   0  0  0  0  0  0  0  0  0  0  0  0
  1  2  2  0
  2  3  1  0
  3  4  1  0
  3  5  2  0
  5  6  1  0
  6  7  2  0
  7  8  1  0
  8  9  2  0
  9 10  1  0
  9 11  1  0
 11 12  2  0
  5 13  1  0
 13 14  1  0
 14 15  2  0
 15 16  1  0
 16 17  1  0
 16 18  2  0
 18 19  1  0
 19 20  1  0
 19 21  2  0
 21  2  1  0
 12  6  1  0
 21 14  1  0
  4 22  1  0
  7 23  1  0
  8 24  1  0
 10 25  1  0
 11 26  1  0
 12 27  1  0
 15 28  1  0
 17 29  1  0
 18 30  1  0
 20 31  1  0
M  END
>  <meeko>  (8) 
{"is_sidechain": [false], "free_energy": -6.144, "intermolecular_energy": -7.336, "internal_energy": 0.09}

$$$$
kaempferol_out
     RDKit          3D

 31 33  0  0  0  0  0  0  0  0999 V2000
  176.4750   18.6040   46.7890 O   0  0  0  0  0  0  0  0  0  0  0  0
  177.1340   19.6110   47.0390 C   0  0  0  0  0  0  0  0  0  0  0  0
  178.5340   19.7300   46.5730 C   0  0  0  0  0  0  0  0  0  0  0  0
  179.0460   18.6730   45.8430 O   0  0  0  0  0  0  0  0  0  0  0  0
  179.2170   20.8520   46.8680 C   0  0  0  0  0  0  0  0  0  0  0  0
  180.6140   21.0880   46.4440 C   0  0  0  0  0  0  0  0  0  0  0  0
  181.4270   22.0420   47.0760 C   0  0  0  0  0  0  0  0  0  0  0  0
  182.7380   22.2660   46.6440 C   0  0  0  0  0  0  0  0  0  0  0  0
  183.2390   21.5390   45.5700 C   0  0  0  0  0  0  0  0  0  0  0  0
  184.5100   21.7250   45.1170 O   0  0  0  0  0  0  0  0  0  0  0  0
  182.4510   20.5980   44.9220 C   0  0  0  0  0  0  0  0  0  0  0  0
  181.1410   20.3740   45.3550 C   0  0  0  0  0  0  0  0  0  0  0  0
  178.6820   21.9190   47.5810 O   0  0  0  0  0  0  0  0  0  0  0  0
  177.3890   21.8360   48.0320 C   0  0  0  0  0  0  0  0  0  0  0  0
  176.8960   22.9240   48.7510 C   0  0  0  0  0  0  0  0  0  0  0  0
  175.5900   22.8930   49.2320 C   0  0  0  0  0  0  0  0  0  0  0  0
  175.1470   23.9760   49.9300 O   0  0  0  0  0  0  0  0  0  0  0  0
  174.7660   21.7920   49.0060 C   0  0  0  0  0  0  0  0  0  0  0  0
  175.2650   20.7090   48.2870 C   0  0  0  0  0  0  0  0  0  0  0  0
  174.4130   19.6540   48.0940 O   0  0  0  0  0  0  0  0  0  0  0  0
  176.5760   20.7300   47.7990 C   0  0  0  0  0  0  0  0  0  0  0  0
  179.8150   18.7930   45.3220 H   0  0  0  0  0  0  0  0  0  0  0  0
  181.0277   22.6208   47.9219 H   0  0  0  0  0  0  0  0  0  0  0  0
  183.3683   23.0120   47.1502 H   0  0  0  0  0  0  0  0  0  0  0  0
  184.9130   21.0780   44.5700 H   0  0  0  0  0  0  0  0  0  0  0  0
  182.8558   20.0307   44.0710 H   0  0  0  0  0  0  0  0  0  0  0  0
  180.5163   19.6310   44.8377 H   0  0  0  0  0  0  0  0  0  0  0  0
  177.5342   23.8004   48.9368 H   0  0  0  0  0  0  0  0  0  0  0  0
  175.6150   24.2680   50.6880 H   0  0  0  0  0  0  0  0  0  0  0  0
  173.7354   21.7787   49.3904 H   0  0  0  0  0  0  0  0  0  0  0  0
  174.7370   18.8480   47.7440 H   0  0  0  0  0  0  0  0  0  0  0  0
  1  2  2  0
  2  3  1  0
  3  4  1  0
  3  5  2  0
  5  6  1  0
  6  7  2  0
  7  8  1  0
  8  9  2  0
  9 10  1  0
  9 11  1  0
 11 12  2  0
  5 13  1  0
 13 14  1  0
 14 15  2  0
 15 16  1  0
 16 17  1  0
 16 18  2  0
 18 19  1  0
 19 20  1  0
 19 21  2  0
 21  2  1  0
 12  6  1  0
 21 14  1  0
  4 22  1  0
  7 23  1  0
  8 24  1  0
 10 25  1  0
 11 26  1  0
 12 27  1  0
 15 28  1  0
 17 29  1  0
 18 30  1  0
 20 31  1  0
M  END
>  <meeko>  (9) 
{"is_sidechain": [false], "free_energy": -6.032, "intermolecular_energy": -7.437, "internal_energy": 0.323}

$$$$
