quercetin_maoa_out
     RDKit          3D

 32 34  0  0  0  0  0  0  0  0999 V2000
  180.4430   21.8730   48.0760 O   0  0  0  0  0  0  0  0  0  0  0  0
  179.7760   20.9740   47.5680 C   0  0  0  0  0  0  0  0  0  0  0  0
  180.4200   19.9520   46.7130 C   0  0  0  0  0  0  0  0  0  0  0  0
  181.7840   20.0690   46.5120 O   0  0  0  0  0  0  0  0  0  0  0  0
  179.6510   18.9870   46.1740 C   0  0  0  0  0  0  0  0  0  0  0  0
  180.1800   17.9240   45.2890 C   0  0  0  0  0  0  0  0  0  0  0  0
  181.0860   18.2600   44.2650 C   0  0  0  0  0  0  0  0  0  0  0  0
  181.5860   17.2840   43.3980 C   0  0  0  0  0  0  0  0  0  0  0  0
  181.1740   15.9700   43.5510 C   0  0  0  0  0  0  0  0  0  0  0  0
  181.6610   15.0160   42.7060 O   0  0  0  0  0  0  0  0  0  0  0  0
  180.2740   15.6200   44.5530 C   0  0  0  0  0  0  0  0  0  0  0  0
  179.9100   14.3050   44.6480 O   0  0  0  0  0  0  0  0  0  0  0  0
  179.7690   16.5860   45.4180 C   0  0  0  0  0  0  0  0  0  0  0  0
  178.2770   18.8960   46.3660 O   0  0  0  0  0  0  0  0  0  0  0  0
  177.6530   19.8250   47.1590 C   0  0  0  0  0  0  0  0  0  0  0  0
  176.2760   19.6890   47.3330 C   0  0  0  0  0  0  0  0  0  0  0  0
  175.5910   20.6040   48.1270 C   0  0  0  0  0  0  0  0  0  0  0  0
  174.2460   20.4360   48.2700 O   0  0  0  0  0  0  0  0  0  0  0  0
  176.2590   21.6560   48.7510 C   0  0  0  0  0  0  0  0  0  0  0  0
  177.6350   21.7850   48.5740 C   0  0  0  0  0  0  0  0  0  0  0  0
  178.2400   22.8350   49.2100 O   0  0  0  0  0  0  0  0  0  0  0  0
  178.3310   20.8710   47.7780 C   0  0  0  0  0  0  0  0  0  0  0  0
  182.3580   19.3790   46.7790 H   0  0  0  0  0  0  0  0  0  0  0  0
  181.4051   19.3059   44.1454 H   0  0  0  0  0  0  0  0  0  0  0  0
  182.2975   17.5558   42.6044 H   0  0  0  0  0  0  0  0  0  0  0  0
  182.1110   15.2680   41.9240 H   0  0  0  0  0  0  0  0  0  0  0  0
  180.5450   13.6600   44.8940 H   0  0  0  0  0  0  0  0  0  0  0  0
  179.0499   16.3032   46.2009 H   0  0  0  0  0  0  0  0  0  0  0  0
  175.7350   18.8642   46.8460 H   0  0  0  0  0  0  0  0  0  0  0  0
  173.6570   21.1020   47.9730 H   0  0  0  0  0  0  0  0  0  0  0  0
  175.7074   22.3747   49.3748 H   0  0  0  0  0  0  0  0  0  0  0  0
  177.8050   23.2690   49.9170 H   0  0  0  0  0  0  0  0  0  0  0  0
  1  2  2  0
  2  3  1  0
  3  4  1  0
  3  5  2  0
  5  6  1  0
  6  7  2  0
  7  8  1  0
  8  9  2  0
  9 10  1  0
  9 11  1  0
 11 12  1  0
 11 13  2  0
  5 14  1  0
 14 15  1  0
 15 16  2  0
 16 17  1  0
 17 18  1  0
 17 19  2  0
 19 20  1  0
 20 21  1  0
 20 22  2  0
 22  2  1  0
 13  6  1  0
 22 15  1  0
  4 23  1  0
  7 24  1  0
  8 25  1  0
 10 26  1  0
 12 27  1  0
 13 28  1  0
 16 29  1  0
 18 30  1  0
 19 31  1  0
 21 32  1  0
M  END
>  <meeko>  (1) 
{"is_sidechain": [false], "free_energy": -8.073, "intermolecular_energy": -9.724, "internal_energy": 0.025}

$$$$
quercetin_maoa_out
     RDKit          3D

 32 34  0  0  0  0  0  0  0  0999 V2000
  181.5890   21.4370   46.9070 O   0  0  0  0  0  0  0  0  0  0  0  0
  180.7580   20.5800   46.6140 C   0  0  0  0  0  0  0  0  0  0  0  0
  181.1280   19.4410   45.7450 C   0  0  0  0  0  0  0  0  0  0  0  0
  182.4300   19.4020   45.2790 O   0  0  0  0  0  0  0  0  0  0  0  0
  180.1850   18.5270   45.4460 C   0  0  0  0  0  0  0  0  0  0  0  0
  180.4330   17.3580   44.5720 C   0  0  0  0  0  0  0  0  0  0  0  0
  180.2080   16.0600   45.0690 C   0  0  0  0  0  0  0  0  0  0  0  0
  180.4540   14.9330   44.2780 C   0  0  0  0  0  0  0  0  0  0  0  0
  180.9310   15.1050   42.9890 C   0  0  0  0  0  0  0  0  0  0  0  0
  181.1710   14.0080   42.2150 O   0  0  0  0  0  0  0  0  0  0  0  0
  181.1650   16.3800   42.4820 C   0  0  0  0  0  0  0  0  0  0  0  0
  181.6360   16.4780   41.2010 O   0  0  0  0  0  0  0  0  0  0  0  0
  180.9270   17.5060   43.2650 C   0  0  0  0  0  0  0  0  0  0  0  0
  178.8730   18.5920   45.9020 O   0  0  0  0  0  0  0  0  0  0  0  0
  178.5030   19.6320   46.7160 C   0  0  0  0  0  0  0  0  0  0  0  0
  177.1810   19.6520   47.1590 C   0  0  0  0  0  0  0  0  0  0  0  0
  176.7490   20.6850   47.9860 C   0  0  0  0  0  0  0  0  0  0  0  0
  175.4490   20.6680   48.3950 O   0  0  0  0  0  0  0  0  0  0  0  0
  177.6170   21.7010   48.3780 C   0  0  0  0  0  0  0  0  0  0  0  0
  178.9370   21.6750   47.9340 C   0  0  0  0  0  0  0  0  0  0  0  0
  179.7470   22.6970   48.3490 O   0  0  0  0  0  0  0  0  0  0  0  0
  179.3790   20.6420   47.1020 C   0  0  0  0  0  0  0  0  0  0  0  0
  182.9160   18.6020   45.3130 H   0  0  0  0  0  0  0  0  0  0  0  0
  179.8330   15.9303   46.0950 H   0  0  0  0  0  0  0  0  0  0  0  0
  180.2711   13.9233   44.6744 H   0  0  0  0  0  0  0  0  0  0  0  0
  181.6800   13.2970   42.5520 H   0  0  0  0  0  0  0  0  0  0  0  0
  181.0720   16.7780   40.5160 H   0  0  0  0  0  0  0  0  0  0  0  0
  181.1253   18.5098   42.8613 H   0  0  0  0  0  0  0  0  0  0  0  0
  176.4839   18.8565   46.8569 H   0  0  0  0  0  0  0  0  0  0  0  0
  174.7740   20.4200   47.7950 H   0  0  0  0  0  0  0  0  0  0  0  0
  177.2647   22.5138   49.0301 H   0  0  0  0  0  0  0  0  0  0  0  0
  179.5080   23.5860   48.1710 H   0  0  0  0  0  0  0  0  0  0  0  0
  1  2  2  0
  2  3  1  0
  3  4  1  0
  3  5  2  0
  5  6  1  0
  6  7  2  0
  7  8  1  0
  8  9  2  0
  9 10  1  0
  9 11  1  0
 11 12  1  0
 11 13  2  0
  5 14  1  0
 14 15  1  0
 15 16  2  0
 16 17  1  0
 17 18  1  0
 17 19  2  0
 19 20  1  0
 20 21  1  0
 20 22  2  0
 22  2  1  0
 13  6  1  0
 22 15  1  0
  4 23  1  0
  7 24  1  0
  8 25  1  0
 10 26  1  0
 12 27  1  0
 13 28  1  0
 16 29  1  0
 18 30  1  0
 19 31  1  0
 21 32  1  0
M  END
>  <meeko>  (2) 
{"is_sidechain": [false], "free_energy": -7.539, "intermolecular_energy": -8.916, "internal_energy": -0.141}

$$$$
quercetin_maoa_out
     RDKit          3D

 32 34  0  0  0  0  0  0  0  0999 V2000
  174.6870   19.6230   47.5040 O   0  0  0  0  0  0  0  0  0  0  0  0
  175.8320   20.0550   47.3950 C   0  0  0  0  0  0  0  0  0  0  0  0
  176.8530   19.2930   46.6410 C   0  0  0  0  0  0  0  0  0  0  0  0
  176.4580   18.0870   46.0900 O   0  0  0  0  0  0  0  0  0  0  0  0
  178.0970   19.8010   46.5480 C   0  0  0  0  0  0  0  0  0  0  0  0
  179.2030   19.1210   45.8380 C   0  0  0  0  0  0  0  0  0  0  0  0
  180.1840   19.8890   45.1820 C   0  0  0  0  0  0  0  0  0  0  0  0
  181.2280   19.2780   44.4820 C   0  0  0  0  0  0  0  0  0  0  0  0
  181.2900   17.8950   44.4340 C   0  0  0  0  0  0  0  0  0  0  0  0
  182.3100   17.2960   43.7530 O   0  0  0  0  0  0  0  0  0  0  0  0
  180.3270   17.1180   45.0720 C   0  0  0  0  0  0  0  0  0  0  0  0
  180.4490   15.7580   44.9840 O   0  0  0  0  0  0  0  0  0  0  0  0
  179.2820   17.7190   45.7660 C   0  0  0  0  0  0  0  0  0  0  0  0
  178.4860   21.0030   47.1280 O   0  0  0  0  0  0  0  0  0  0  0  0
  177.5600   21.7360   47.8260 C   0  0  0  0  0  0  0  0  0  0  0  0
  177.9900   22.9400   48.3810 C   0  0  0  0  0  0  0  0  0  0  0  0
  177.0930   23.7240   49.1020 C   0  0  0  0  0  0  0  0  0  0  0  0
  177.5540   24.8930   49.6280 O   0  0  0  0  0  0  0  0  0  0  0  0
  175.7700   23.3230   49.2780 C   0  0  0  0  0  0  0  0  0  0  0  0
  175.3460   22.1190   48.7200 C   0  0  0  0  0  0  0  0  0  0  0  0
  174.0370   21.7740   48.9230 O   0  0  0  0  0  0  0  0  0  0  0  0
  176.2410   21.3260   47.9950 C   0  0  0  0  0  0  0  0  0  0  0  0
  175.6990   17.6480   46.4200 H   0  0  0  0  0  0  0  0  0  0  0  0
  180.1278   20.9869   45.2211 H   0  0  0  0  0  0  0  0  0  0  0  0
  181.9908   19.8876   43.9756 H   0  0  0  0  0  0  0  0  0  0  0  0
  182.1340   16.8270   42.9620 H   0  0  0  0  0  0  0  0  0  0  0  0
  179.7350   15.2440   44.6610 H   0  0  0  0  0  0  0  0  0  0  0  0
  178.5185   17.0983   46.2578 H   0  0  0  0  0  0  0  0  0  0  0  0
  179.0315   23.2689   48.2503 H   0  0  0  0  0  0  0  0  0  0  0  0
  177.5710   25.0130   50.5580 H   0  0  0  0  0  0  0  0  0  0  0  0
  175.0695   23.9491   49.8502 H   0  0  0  0  0  0  0  0  0  0  0  0
  173.7980   20.8720   49.0050 H   0  0  0  0  0  0  0  0  0  0  0  0
  1  2  2  0
  2  3  1  0
  3  4  1  0
  3  5  2  0
  5  6  1  0
  6  7  2  0
  7  8  1  0
  8  9  2  0
  9 10  1  0
  9 11  1  0
 11 12  1  0
 11 13  2  0
  5 14  1  0
 14 15  1  0
 15 16  2  0
 16 17  1  0
 17 18  1  0
 17 19  2  0
 19 20  1  0
 20 21  1  0
 20 22  2  0
 22  2  1  0
 13  6  1  0
 22 15  1  0
  4 23  1  0
  7 24  1  0
  8 25  1  0
 10 26  1  0
 12 27  1  0
 13 28  1  0
 16 29  1  0
 18 30  1  0
 19 31  1  0
 21 32  1  0
M  END
>  <meeko>  (3) 
{"is_sidechain": [false], "free_energy": -7.431, "intermolecular_energy": -9.064, "internal_energy": 0.137}

$$$$
quercetin_maoa_out
     RDKit          3D

 32 34  0  0  0  0  0  0  0  0999 V2000
  179.4950   23.6350   49.0770 O   0  0  0  0  0  0  0  0  0  0  0  0
  179.0300   22.6810   48.4580 C   0  0  0  0  0  0  0  0  0  0  0  0
  179.9150   21.8000   47.6610 C   0  0  0  0  0  0  0  0  0  0  0  0
  181.2620   22.1130   47.6420 O   0  0  0  0  0  0  0  0  0  0  0  0
  179.3630   20.7680   46.9950 C   0  0  0  0  0  0  0  0  0  0  0  0
  180.1430   19.8340   46.1520 C   0  0  0  0  0  0  0  0  0  0  0  0
  181.3080   20.2890   45.5050 C   0  0  0  0  0  0  0  0  0  0  0  0
  182.0540   19.4390   44.6830 C   0  0  0  0  0  0  0  0  0  0  0  0
  181.6320   18.1320   44.5040 C   0  0  0  0  0  0  0  0  0  0  0  0
  182.3590   17.3000   43.7040 O   0  0  0  0  0  0  0  0  0  0  0  0
  180.4800   17.6650   45.1310 C   0  0  0  0  0  0  0  0  0  0  0  0
  180.1210   16.3630   44.9100 O   0  0  0  0  0  0  0  0  0  0  0  0
  179.7300   18.5060   45.9470 C   0  0  0  0  0  0  0  0  0  0  0  0
  178.0030   20.4810   47.0030 O   0  0  0  0  0  0  0  0  0  0  0  0
  177.1600   21.2740   47.7390 C   0  0  0  0  0  0  0  0  0  0  0  0
  175.8050   20.9430   47.7270 C   0  0  0  0  0  0  0  0  0  0  0  0
  174.9040   21.7150   48.4550 C   0  0  0  0  0  0  0  0  0  0  0  0
  173.5890   21.3580   48.4160 O   0  0  0  0  0  0  0  0  0  0  0  0
  175.3330   22.8150   49.1950 C   0  0  0  0  0  0  0  0  0  0  0  0
  176.6880   23.1390   49.2020 C   0  0  0  0  0  0  0  0  0  0  0  0
  177.0550   24.2290   49.9450 O   0  0  0  0  0  0  0  0  0  0  0  0
  177.6000   22.3700   48.4740 C   0  0  0  0  0  0  0  0  0  0  0  0
  181.6590   22.4260   46.8540 H   0  0  0  0  0  0  0  0  0  0  0  0
  181.6361   21.3291   45.6485 H   0  0  0  0  0  0  0  0  0  0  0  0
  182.9644   19.8036   44.1848 H   0  0  0  0  0  0  0  0  0  0  0  0
  182.5660   17.5550   42.8270 H   0  0  0  0  0  0  0  0  0  0  0  0
  180.4370   15.6870   45.4780 H   0  0  0  0  0  0  0  0  0  0  0  0
  178.8155   18.1325   46.4309 H   0  0  0  0  0  0  0  0  0  0  0  0
  175.4510   20.0783   47.1465 H   0  0  0  0  0  0  0  0  0  0  0  0
  173.2340   20.8080   49.0870 H   0  0  0  0  0  0  0  0  0  0  0  0
  174.6121   23.4190   49.7655 H   0  0  0  0  0  0  0  0  0  0  0  0
  177.5280   24.9320   49.5440 H   0  0  0  0  0  0  0  0  0  0  0  0
  1  2  2  0
  2  3  1  0
  3  4  1  0
  3  5  2  0
  5  6  1  0
  6  7  2  0
  7  8  1  0
  8  9  2  0
  9 10  1  0
  9 11  1  0
 11 12  1  0
 11 13  2  0
  5 14  1  0
 14 15  1  0
 15 16  2  0
 16 17  1  0
 17 18  1  0
 17 19  2  0
 19 20  1  0
 20 21  1  0
 20 22  2  0
 22  2  1  0
 13  6  1  0
 22 15  1  0
  4 23  1  0
  7 24  1  0
  8 25  1  0
 10 26  1  0
 12 27  1  0
 13 28  1  0
 16 29  1  0
 18 30  1  0
 19 31  1  0
 21 32  1  0
M  END
>  <meeko>  (4) 
{"is_sidechain": [false], "free_energy": -7.354, "intermolecular_energy": -9.037, "internal_energy": 0.203}

$$$$
quercetin_maoa_out
     RDKit          3D

 32 34  0  0  0  0  0  0  0  0999 V2000
  178.9800   18.0410   45.6550 O   0  0  0  0  0  0  0  0  0  0  0  0
  179.1610   19.1610   46.1280 C   0  0  0  0  0  0  0  0  0  0  0  0
  178.0930   19.8290   46.9060 C   0  0  0  0  0  0  0  0  0  0  0  0
  176.9010   19.1440   47.0550 O   0  0  0  0  0  0  0  0  0  0  0  0
  178.3330   21.0570   47.4030 C   0  0  0  0  0  0  0  0  0  0  0  0
  177.3360   21.8300   48.1790 C   0  0  0  0  0  0  0  0  0  0  0  0
  177.3400   23.2360   48.1090 C   0  0  0  0  0  0  0  0  0  0  0  0
  176.4280   23.9960   48.8470 C   0  0  0  0  0  0  0  0  0  0  0  0
  175.5120   23.3490   49.6600 C   0  0  0  0  0  0  0  0  0  0  0  0
  174.6200   24.0890   50.3800 O   0  0  0  0  0  0  0  0  0  0  0  0
  175.4960   21.9600   49.7470 C   0  0  0  0  0  0  0  0  0  0  0  0
  174.5650   21.3860   50.5690 O   0  0  0  0  0  0  0  0  0  0  0  0
  176.4040   21.1970   49.0190 C   0  0  0  0  0  0  0  0  0  0  0  0
  179.5280   21.7450   47.2240 O   0  0  0  0  0  0  0  0  0  0  0  0
  180.5380   21.1480   46.5150 C   0  0  0  0  0  0  0  0  0  0  0  0
  181.7240   21.8680   46.3690 C   0  0  0  0  0  0  0  0  0  0  0  0
  182.7820   21.3120   45.6570 C   0  0  0  0  0  0  0  0  0  0  0  0
  183.9220   22.0490   45.5370 O   0  0  0  0  0  0  0  0  0  0  0  0
  182.6780   20.0450   45.0870 C   0  0  0  0  0  0  0  0  0  0  0  0
  181.4910   19.3300   45.2370 C   0  0  0  0  0  0  0  0  0  0  0  0
  181.4420   18.0910   44.6570 O   0  0  0  0  0  0  0  0  0  0  0  0
  180.4230   19.8810   45.9500 C   0  0  0  0  0  0  0  0  0  0  0  0
  176.1060   19.5080   46.7200 H   0  0  0  0  0  0  0  0  0  0  0  0
  178.0718   23.7442   47.4639 H   0  0  0  0  0  0  0  0  0  0  0  0
  176.4376   25.0941   48.7829 H   0  0  0  0  0  0  0  0  0  0  0  0
  174.6930   25.0220   50.4000 H   0  0  0  0  0  0  0  0  0  0  0  0
  174.8400   20.9170   51.3320 H   0  0  0  0  0  0  0  0  0  0  0  0
  176.3922   20.1001   49.1009 H   0  0  0  0  0  0  0  0  0  0  0  0
  181.8220   22.8691   46.8141 H   0  0  0  0  0  0  0  0  0  0  0  0
  184.6220   21.9310   46.1490 H   0  0  0  0  0  0  0  0  0  0  0  0
  183.5210   19.6149   44.5263 H   0  0  0  0  0  0  0  0  0  0  0  0
  182.1420   17.4820   44.7920 H   0  0  0  0  0  0  0  0  0  0  0  0
  1  2  2  0
  2  3  1  0
  3  4  1  0
  3  5  2  0
  5  6  1  0
  6  7  2  0
  7  8  1  0
  8  9  2  0
  9 10  1  0
  9 11  1  0
 11 12  1  0
 11 13  2  0
  5 14  1  0
 14 15  1  0
 15 16  2  0
 16 17  1  0
 17 18  1  0
 17 19  2  0
 19 20  1  0
 20 21  1  0
 20 22  2  0
 22  2  1  0
 13  6  1  0
 22 15  1  0
  4 23  1  0
  7 24  1  0
  8 25  1  0
 10 26  1  0
 12 27  1  0
 13 28  1  0
 16 29  1  0
 18 30  1  0
 19 31  1  0
 21 32  1  0
M  END
>  <meeko>  (5) 
{"is_sidechain": [false], "free_energy": -7.091, "intermolecular_energy": -8.626, "internal_energy": 0.109}

$$$$
quercetin_maoa_out
     RDKit          3D

 32 34  0  0  0  0  0  0  0  0999 V2000
  177.1860   22.7630   49.5940 O   0  0  0  0  0  0  0  0  0  0  0  0
  177.6290   22.0090   48.7300 C   0  0  0  0  0  0  0  0  0  0  0  0
  179.0030   22.1890   48.2080 C   0  0  0  0  0  0  0  0  0  0  0  0
  179.7400   23.2390   48.7260 O   0  0  0  0  0  0  0  0  0  0  0  0
  179.4460   21.3430   47.2600 C   0  0  0  0  0  0  0  0  0  0  0  0
  180.7920   21.4370   46.6500 C   0  0  0  0  0  0  0  0  0  0  0  0
  181.1130   20.6230   45.5470 C   0  0  0  0  0  0  0  0  0  0  0  0
  182.3830   20.6700   44.9630 C   0  0  0  0  0  0  0  0  0  0  0  0
  183.3350   21.5290   45.4860 C   0  0  0  0  0  0  0  0  0  0  0  0
  184.5740   21.5780   44.9170 O   0  0  0  0  0  0  0  0  0  0  0  0
  183.0380   22.3380   46.5790 C   0  0  0  0  0  0  0  0  0  0  0  0
  184.0250   23.1630   47.0450 O   0  0  0  0  0  0  0  0  0  0  0  0
  181.7780   22.2940   47.1690 C   0  0  0  0  0  0  0  0  0  0  0  0
  178.6850   20.3070   46.7300 O   0  0  0  0  0  0  0  0  0  0  0  0
  177.4110   20.1110   47.2000 C   0  0  0  0  0  0  0  0  0  0  0  0
  176.6880   19.0530   46.6490 C   0  0  0  0  0  0  0  0  0  0  0  0
  175.3890   18.8090   47.0870 C   0  0  0  0  0  0  0  0  0  0  0  0
  174.7160   17.7670   46.5220 O   0  0  0  0  0  0  0  0  0  0  0  0
  174.7990   19.6040   48.0670 C   0  0  0  0  0  0  0  0  0  0  0  0
  175.5280   20.6580   48.6140 C   0  0  0  0  0  0  0  0  0  0  0  0
  174.9010   21.4070   49.5720 O   0  0  0  0  0  0  0  0  0  0  0  0
  176.8330   20.9110   48.1800 C   0  0  0  0  0  0  0  0  0  0  0  0
  180.2940   23.7450   48.1650 H   0  0  0  0  0  0  0  0  0  0  0  0
  180.3537   19.9399   45.1385 H   0  0  0  0  0  0  0  0  0  0  0  0
  182.6226   20.0326   44.0991 H   0  0  0  0  0  0  0  0  0  0  0  0
  184.6640   21.7810   44.0070 H   0  0  0  0  0  0  0  0  0  0  0  0
  184.8910   23.1030   46.6920 H   0  0  0  0  0  0  0  0  0  0  0  0
  181.5544   22.9284   48.0394 H   0  0  0  0  0  0  0  0  0  0  0  0
  177.1406   18.4164   45.8745 H   0  0  0  0  0  0  0  0  0  0  0  0
  174.3410   17.1030   47.0660 H   0  0  0  0  0  0  0  0  0  0  0  0
  173.7716   19.4025   48.4044 H   0  0  0  0  0  0  0  0  0  0  0  0
  174.0070   21.2320   49.7930 H   0  0  0  0  0  0  0  0  0  0  0  0
  1  2  2  0
  2  3  1  0
  3  4  1  0
  3  5  2  0
  5  6  1  0
  6  7  2  0
  7  8  1  0
  8  9  2  0
  9 10  1  0
  9 11  1  0
 11 12  1  0
 11 13  2  0
  5 14  1  0
 14 15  1  0
 15 16  2  0
 16 17  1  0
 17 18  1  0
 17 19  2  0
 19 20  1  0
 20 21  1  0
 20 22  2  0
 22  2  1  0
 13  6  1  0
 22 15  1  0
  4 23  1  0
  7 24  1  0
  8 25  1  0
 10 26  1  0
 12 27  1  0
 13 28  1  0
 16 29  1  0
 18 30  1  0
 19 31  1  0
 21 32  1  0
M  END
>  <meeko>  (6) 
{"is_sidechain": [false], "free_energy": -6.709, "intermolecular_energy": -8.354, "internal_energy": 0.296}

$$$$
quercetin_maoa_out
     RDKit          3D

 32 34  0  0  0  0  0  0  0  0999 V2000
  182.1730   22.2470   47.0390 O   0  0  0  0  0  0  0  0  0  0  0  0
  181.1900   21.5110   46.9710 C   0  0  0  0  0  0  0  0  0  0  0  0
  179.9830   21.7960   47.7780 C   0  0  0  0  0  0  0  0  0  0  0  0
  180.0260   22.9030   48.6060 O   0  0  0  0  0  0  0  0  0  0  0  0
  178.9300   20.9630   47.6760 C   0  0  0  0  0  0  0  0  0  0  0  0
  177.6780   21.1350   48.4470 C   0  0  0  0  0  0  0  0  0  0  0  0
  176.9390   20.0000   48.8350 C   0  0  0  0  0  0  0  0  0  0  0  0
  175.7410   20.1290   49.5430 C   0  0  0  0  0  0  0  0  0  0  0  0
  175.2770   21.3940   49.8610 C   0  0  0  0  0  0  0  0  0  0  0  0
  174.1090   21.5220   50.5530 O   0  0  0  0  0  0  0  0  0  0  0  0
  175.9900   22.5280   49.4820 C   0  0  0  0  0  0  0  0  0  0  0  0
  175.4750   23.7470   49.8280 O   0  0  0  0  0  0  0  0  0  0  0  0
  177.1820   22.4080   48.7730 C   0  0  0  0  0  0  0  0  0  0  0  0
  178.9100   19.8390   46.8580 O   0  0  0  0  0  0  0  0  0  0  0  0
  180.0120   19.5540   46.0920 C   0  0  0  0  0  0  0  0  0  0  0  0
  179.9440   18.4240   45.2780 C   0  0  0  0  0  0  0  0  0  0  0  0
  181.0340   18.0860   44.4800 C   0  0  0  0  0  0  0  0  0  0  0  0
  180.9270   16.9740   43.7010 O   0  0  0  0  0  0  0  0  0  0  0  0
  182.1930   18.8590   44.4820 C   0  0  0  0  0  0  0  0  0  0  0  0
  182.2530   19.9880   45.2970 C   0  0  0  0  0  0  0  0  0  0  0  0
  183.4150   20.7110   45.2610 O   0  0  0  0  0  0  0  0  0  0  0  0
  181.1640   20.3340   46.1020 C   0  0  0  0  0  0  0  0  0  0  0  0
  180.2290   22.8010   49.5150 H   0  0  0  0  0  0  0  0  0  0  0  0
  177.3105   18.9973   48.5768 H   0  0  0  0  0  0  0  0  0  0  0  0
  175.1735   19.2361   49.8440 H   0  0  0  0  0  0  0  0  0  0  0  0
  173.2890   21.5030   50.0990 H   0  0  0  0  0  0  0  0  0  0  0  0
  175.7490   24.1630   50.6220 H   0  0  0  0  0  0  0  0  0  0  0  0
  177.7347   23.3090   48.4685 H   0  0  0  0  0  0  0  0  0  0  0  0
  179.0356   17.8038   45.2663 H   0  0  0  0  0  0  0  0  0  0  0  0
  180.1280   16.7980   43.2440 H   0  0  0  0  0  0  0  0  0  0  0  0
  183.0490   18.5821   43.8491 H   0  0  0  0  0  0  0  0  0  0  0  0
  184.1920   20.3320   44.8990 H   0  0  0  0  0  0  0  0  0  0  0  0
  1  2  2  0
  2  3  1  0
  3  4  1  0
  3  5  2  0
  5  6  1  0
  6  7  2  0
  7  8  1  0
  8  9  2  0
  9 10  1  0
  9 11  1  0
 11 12  1  0
 11 13  2  0
  5 14  1  0
 14 15  1  0
 15 16  2  0
 16 17  1  0
 17 18  1  0
 17 19  2  0
 19 20  1  0
 20 21  1  0
 20 22  2  0
 22  2  1  0
 13  6  1  0
 22 15  1  0
  4 23  1  0
  7 24  1  0
  8 25  1  0
 10 26  1  0
 12 27  1  0
 13 28  1  0
 16 29  1  0
 18 30  1  0
 19 31  1  0
 21 32  1  0
M  END
>  <meeko>  (7) 
{"is_sidechain": [false], "free_energy": -6.603, "intermolecular_energy": -8.032, "internal_energy": 0.103}

$$$$
quercetin_maoa_out
     RDKit          3D

 32 34  0  0  0  0  0  0  0  0999 V2000
  181.9340   20.5670   45.0670 O   0  0  0  0  0  0  0  0  0  0  0  0
  180.9900   19.8480   45.3870 C   0  0  0  0  0  0  0  0  0  0  0  0
  179.8870   20.3810   46.2170 C   0  0  0  0  0  0  0  0  0  0  0  0
  179.9820   21.7020   46.6160 O   0  0  0  0  0  0  0  0  0  0  0  0
  178.8740   19.5570   46.5470 C   0  0  0  0  0  0  0  0  0  0  0  0
  177.7280   19.9720   47.3870 C   0  0  0  0  0  0  0  0  0  0  0  0
  176.5010   19.2920   47.2740 C   0  0  0  0  0  0  0  0  0  0  0  0
  175.3930   19.6740   48.0350 C   0  0  0  0  0  0  0  0  0  0  0  0
  175.5100   20.7420   48.9090 C   0  0  0  0  0  0  0  0  0  0  0  0
  174.4300   21.1150   49.6540 O   0  0  0  0  0  0  0  0  0  0  0  0
  176.7130   21.4310   49.0310 C   0  0  0  0  0  0  0  0  0  0  0  0
  176.7590   22.4760   49.9130 O   0  0  0  0  0  0  0  0  0  0  0  0
  177.8190   21.0590   48.2730 C   0  0  0  0  0  0  0  0  0  0  0  0
  178.8040   18.2240   46.1590 O   0  0  0  0  0  0  0  0  0  0  0  0
  179.8080   17.7040   45.3820 C   0  0  0  0  0  0  0  0  0  0  0  0
  179.6920   16.3660   45.0070 C   0  0  0  0  0  0  0  0  0  0  0  0
  180.6820   15.7850   44.2200 C   0  0  0  0  0  0  0  0  0  0  0  0
  180.5310   14.4750   43.8760 O   0  0  0  0  0  0  0  0  0  0  0  0
  181.7900   16.5190   43.8020 C   0  0  0  0  0  0  0  0  0  0  0  0
  181.8990   17.8550   44.1790 C   0  0  0  0  0  0  0  0  0  0  0  0
  183.0070   18.5290   43.7410 O   0  0  0  0  0  0  0  0  0  0  0  0
  180.9100   18.4470   44.9690 C   0  0  0  0  0  0  0  0  0  0  0  0
  179.4200   22.3480   46.2360 H   0  0  0  0  0  0  0  0  0  0  0  0
  176.4128   18.4466   46.5757 H   0  0  0  0  0  0  0  0  0  0  0  0
  174.4397   19.1332   47.9411 H   0  0  0  0  0  0  0  0  0  0  0  0
  174.3240   22.0100   49.9110 H   0  0  0  0  0  0  0  0  0  0  0  0
  176.3920   22.3820   50.7710 H   0  0  0  0  0  0  0  0  0  0  0  0
  178.7634   21.6151   48.3672 H   0  0  0  0  0  0  0  0  0  0  0  0
  178.8237   15.7735   45.3311 H   0  0  0  0  0  0  0  0  0  0  0  0
  179.6790   14.1390   43.6770 H   0  0  0  0  0  0  0  0  0  0  0  0
  182.5682   16.0494   43.1825 H   0  0  0  0  0  0  0  0  0  0  0  0
  183.8560   18.1400   43.8240 H   0  0  0  0  0  0  0  0  0  0  0  0
  1  2  2  0
  2  3  1  0
  3  4  1  0
  3  5  2  0
  5  6  1  0
  6  7  2  0
  7  8  1  0
  8  9  2  0
  9 10  1  0
  9 11  1  0
 11 12  1  0
 11 13  2  0
  5 14  1  0
 14 15  1  0
 15 16  2  0
 16 17  1  0
 17 18  1  0
 17 19  2  0
 19 20  1  0
 20 21  1  0
 20 22  2  0
 22  2  1  0
 13  6  1  0
 22 15  1  0
  4 23  1  0
  7 24  1  0
  8 25  1  0
 10 26  1  0
 12 27  1  0
 13 28  1  0
 16 29  1  0
 18 30  1  0
 19 31  1  0
 21 32  1  0
M  END
>  <meeko>  (8) 
{"is_sidechain": [false], "free_energy": -6.475, "intermolecular_energy": -7.992, "internal_energy": 0.217}

$$$$
quercetin_maoa_out
     RDKit          3D

 32 34  0  0  0  0  0  0  0  0999 V2000
  176.4200   18.6430   46.9120 O   0  0  0  0  0  0  0  0  0  0  0  0
  177.0840   19.6590   47.1080 C   0  0  0  0  0  0  0  0  0  0  0  0
  178.4660   19.7640   46.5860 C   0  0  0  0  0  0  0  0  0  0  0  0
  178.9620   18.6750   45.8930 O   0  0  0  0  0  0  0  0  0  0  0  0
  179.1600   20.8930   46.8270 C   0  0  0  0  0  0  0  0  0  0  0  0
  180.5530   21.1050   46.3730 C   0  0  0  0  0  0  0  0  0  0  0  0
  181.0520   20.3560   45.2900 C   0  0  0  0  0  0  0  0  0  0  0  0
  182.3700   20.5140   44.8520 C   0  0  0  0  0  0  0  0  0  0  0  0
  183.1920   21.4210   45.5010 C   0  0  0  0  0  0  0  0  0  0  0  0
  184.4780   21.5780   45.0740 O   0  0  0  0  0  0  0  0  0  0  0  0
  182.7190   22.1660   46.5760 C   0  0  0  0  0  0  0  0  0  0  0  0
  183.5850   23.0430   47.1710 O   0  0  0  0  0  0  0  0  0  0  0  0
  181.4090   22.0110   47.0210 C   0  0  0  0  0  0  0  0  0  0  0  0
  178.6570   21.9710   47.5470 O   0  0  0  0  0  0  0  0  0  0  0  0
  177.3770   21.9050   48.0360 C   0  0  0  0  0  0  0  0  0  0  0  0
  176.9100   23.0130   48.7430 C   0  0  0  0  0  0  0  0  0  0  0  0
  175.6190   23.0000   49.2630 C   0  0  0  0  0  0  0  0  0  0  0  0
  175.2010   24.1020   49.9480 O   0  0  0  0  0  0  0  0  0  0  0  0
  174.7850   21.8980   49.0900 C   0  0  0  0  0  0  0  0  0  0  0  0
  175.2570   20.7950   48.3820 C   0  0  0  0  0  0  0  0  0  0  0  0
  174.3970   19.7400   48.2420 O   0  0  0  0  0  0  0  0  0  0  0  0
  176.5530   20.7990   47.8560 C   0  0  0  0  0  0  0  0  0  0  0  0
  179.3340   17.9520   46.3590 H   0  0  0  0  0  0  0  0  0  0  0  0
  180.3947   19.6357   44.7810 H   0  0  0  0  0  0  0  0  0  0  0  0
  182.7495   19.9260   44.0033 H   0  0  0  0  0  0  0  0  0  0  0  0
  184.7650   22.4060   44.7410 H   0  0  0  0  0  0  0  0  0  0  0  0
  183.7330   23.0000   48.0950 H   0  0  0  0  0  0  0  0  0  0  0  0
  181.0450   22.5966   47.8781 H   0  0  0  0  0  0  0  0  0  0  0  0
  177.5572   23.8905   48.8885 H   0  0  0  0  0  0  0  0  0  0  0  0
  175.5360   24.9480   49.7220 H   0  0  0  0  0  0  0  0  0  0  0  0
  173.7671   21.8986   49.5069 H   0  0  0  0  0  0  0  0  0  0  0  0
  174.4000   19.2340   47.4530 H   0  0  0  0  0  0  0  0  0  0  0  0
  1  2  2  0
  2  3  1  0
  3  4  1  0
  3  5  2  0
  5  6  1  0
  6  7  2  0
  7  8  1  0
  8  9  2  0
  9 10  1  0
  9 11  1  0
 11 12  1  0
 11 13  2  0
  5 14  1  0
 14 15  1  0
 15 16  2  0
 16 17  1  0
 17 18  1  0
 17 19  2  0
 19 20  1  0
 20 21  1  0
 20 22  2  0
 22  2  1  0
 13  6  1  0
 22 15  1  0
  4 23  1  0
  7 24  1  0
  8 25  1  0
 10 26  1  0
 12 27  1  0
 13 28  1  0
 16 29  1  0
 18 30  1  0
 19 31  1  0
 21 32  1  0
M  END
>  <meeko>  (9) 
{"is_sidechain": [false], "free_energy": -6.257, "intermolecular_energy": -7.795, "internal_energy": 0.283}

$$$$
