selegiline_out
     RDKit          3D

 32 32  0  0  0  0  0  0  0  0999 V2000
  178.5230   24.0110   47.3360 C   0  0  0  0  0  0  0  0  0  0  0  0
  177.6150   23.5890   48.0000 C   0  0  0  0  0  0  0  0  0  0  0  0
  176.4980   23.0790   48.8140 C   0  0  0  0  0  0  0  0  0  0  0  0
  176.4480   21.6080   48.8050 N   0  0  1  0  0  0  0  0  0  0  0  0
  175.3110   21.1140   49.5860 C   0  0  0  0  0  0  0  0  0  0  0  0
  176.5130   21.0620   47.4240 C   0  0  2  0  0  0  0  0  0  0  0  0
  175.1420   20.7280   46.8120 C   0  0  0  0  0  0  0  0  0  0  0  0
  177.4680   19.8380   47.3700 C   0  0  0  0  0  0  0  0  0  0  0  0
  178.8780   20.1820   46.9410 C   0  0  0  0  0  0  0  0  0  0  0  0
  179.8320   20.5880   47.8830 C   0  0  0  0  0  0  0  0  0  0  0  0
  181.1330   20.8960   47.4840 C   0  0  0  0  0  0  0  0  0  0  0  0
  181.4930   20.8020   46.1410 C   0  0  0  0  0  0  0  0  0  0  0  0
  180.5500   20.4040   45.1950 C   0  0  0  0  0  0  0  0  0  0  0  0
  179.2490   20.0950   45.5920 C   0  0  0  0  0  0  0  0  0  0  0  0
  179.3543   24.3974   46.7281 H   0  0  0  0  0  0  0  0  0  0  0  0
  176.6243   23.4255   49.8503 H   0  0  0  0  0  0  0  0  0  0  0  0
  175.5587   23.4577   48.3847 H   0  0  0  0  0  0  0  0  0  0  0  0
  177.2830   21.2550   49.2720 H   0  0  0  0  0  0  0  0  0  0  0  0
  175.5335   21.2107   50.6589 H   0  0  0  0  0  0  0  0  0  0  0  0
  174.4151   21.7040   49.3427 H   0  0  0  0  0  0  0  0  0  0  0  0
  175.1309   20.0565   49.3427 H   0  0  0  0  0  0  0  0  0  0  0  0
  176.9183   21.8690   46.7959 H   0  0  0  0  0  0  0  0  0  0  0  0
  174.4142   20.5507   47.6176 H   0  0  0  0  0  0  0  0  0  0  0  0
  174.8030   21.5698   46.1904 H   0  0  0  0  0  0  0  0  0  0  0  0
  175.2282   19.8246   46.1904 H   0  0  0  0  0  0  0  0  0  0  0  0
  177.5107   19.3869   48.3724 H   0  0  0  0  0  0  0  0  0  0  0  0
  177.0626   19.1483   46.6150 H   0  0  0  0  0  0  0  0  0  0  0  0
  179.5535   20.6645   48.9444 H   0  0  0  0  0  0  0  0  0  0  0  0
  181.8757   21.2135   48.2307 H   0  0  0  0  0  0  0  0  0  0  0  0
  182.5199   21.0416   45.8280 H   0  0  0  0  0  0  0  0  0  0  0  0
  180.8320   20.3335   44.1341 H   0  0  0  0  0  0  0  0  0  0  0  0
  178.5090   19.7809   44.8412 H   0  0  0  0  0  0  0  0  0  0  0  0
  1  2  3  0
  2  3  1  0
  3  4  1  0
  4  5  1  0
  4  6  1  0
  6  7  1  0
  6  8  1  0
  8  9  1  0
  9 10  2  0
 10 11  1  0
 11 12  2  0
 12 13  1  0
 13 14  2  0
 14  9  1  0
  1 15  1  0
  3 16  1  0
  3 17  1  0
  4 18  1  1
  5 19  1  0
  5 20  1  0
  5 21  1  0
  6 22  1  6
  7 23  1  0
  7 24  1  0
  7 25  1  0
  8 26  1  0
  8 27  1  0
 10 28  1  0
 11 29  1  0
 12 30  1  0
 13 31  1  0
 14 32  1  0
M  CHG  1   4   1
M  END
>  <meeko>  (1) 
{"is_sidechain": [false], "free_energy": -5.607, "intermolecular_energy": -6.918, "internal_energy": -0.934}

$$$$
selegiline_out
     RDKit          3D

 32 32  0  0  0  0  0  0  0  0999 V2000
  175.4500   18.1390   46.9590 C   0  0  0  0  0  0  0  0  0  0  0  0
  175.2580   19.3150   47.1140 C   0  0  0  0  0  0  0  0  0  0  0  0
  175.0170   20.7570   47.2980 C   0  0  0  0  0  0  0  0  0  0  0  0
  175.4440   21.2120   48.6320 N   0  0  1  0  0  0  0  0  0  0  0  0
  175.5460   20.0880   49.5660 C   0  0  0  0  0  0  0  0  0  0  0  0
  176.6700   22.0500   48.5620 C   0  0  2  0  0  0  0  0  0  0  0  0
  176.4780   23.4920   49.0590 C   0  0  0  0  0  0  0  0  0  0  0  0
  177.2630   22.0220   47.1260 C   0  0  0  0  0  0  0  0  0  0  0  0
  178.5860   21.2940   47.0270 C   0  0  0  0  0  0  0  0  0  0  0  0
  179.7340   21.8090   47.6450 C   0  0  0  0  0  0  0  0  0  0  0  0
  180.9500   21.1290   47.5570 C   0  0  0  0  0  0  0  0  0  0  0  0
  181.0300   19.9290   46.8520 C   0  0  0  0  0  0  0  0  0  0  0  0
  179.8960   19.4100   46.2320 C   0  0  0  0  0  0  0  0  0  0  0  0
  178.6790   20.0880   46.3180 C   0  0  0  0  0  0  0  0  0  0  0  0
  175.6258   17.0624   46.8171 H   0  0  0  0  0  0  0  0  0  0  0  0
  175.5798   21.3134   46.5340 H   0  0  0  0  0  0  0  0  0  0  0  0
  173.9367   20.9404   47.2013 H   0  0  0  0  0  0  0  0  0  0  0  0
  174.7220   21.8260   49.0090 H   0  0  0  0  0  0  0  0  0  0  0  0
  175.5118   20.4652   50.5987 H   0  0  0  0  0  0  0  0  0  0  0  0
  174.7069   19.3962   49.4003 H   0  0  0  0  0  0  0  0  0  0  0  0
  176.4959   19.5586   49.4003 H   0  0  0  0  0  0  0  0  0  0  0  0
  177.3884   21.5992   49.2625 H   0  0  0  0  0  0  0  0  0  0  0  0
  176.4765   23.5036   50.1589 H   0  0  0  0  0  0  0  0  0  0  0  0
  177.3004   24.1207   48.6868 H   0  0  0  0  0  0  0  0  0  0  0  0
  175.5198   23.8836   48.6868 H   0  0  0  0  0  0  0  0  0  0  0  0
  176.5417   21.5228   46.4623 H   0  0  0  0  0  0  0  0  0  0  0  0
  177.4488   23.0664   46.8351 H   0  0  0  0  0  0  0  0  0  0  0  0
  179.6763   22.7552   48.2030 H   0  0  0  0  0  0  0  0  0  0  0  0
  181.8461   21.5405   48.0445 H   0  0  0  0  0  0  0  0  0  0  0  0
  181.9880   19.3925   46.7855 H   0  0  0  0  0  0  0  0  0  0  0  0
  179.9596   18.4643   45.6737 H   0  0  0  0  0  0  0  0  0  0  0  0
  177.7867   19.6733   45.8262 H   0  0  0  0  0  0  0  0  0  0  0  0
  1  2  3  0
  2  3  1  0
  3  4  1  0
  4  5  1  0
  4  6  1  0
  6  7  1  0
  6  8  1  0
  8  9  1  0
  9 10  2  0
 10 11  1  0
 11 12  2  0
 12 13  1  0
 13 14  2  0
 14  9  1  0
  1 15  1  0
  3 16  1  0
  3 17  1  0
  4 18  1  1
  5 19  1  0
  5 20  1  0
  5 21  1  0
  6 22  1  1
  7 23  1  0
  7 24  1  0
  7 25  1  0
  8 26  1  0
  8 27  1  0
 10 28  1  0
 11 29  1  0
 12 30  1  0
 13 31  1  0
 14 32  1  0
M  CHG  1   4   1
M  END
>  <meeko>  (2) 
{"is_sidechain": [false], "free_energy": -5.441, "intermolecular_energy": -7.372, "internal_energy": -0.276}

$$$$
selegiline_out
     RDKit          3D

 32 32  0  0  0  0  0  0  0  0999 V2000
  175.4480   18.1300   46.9590 C   0  0  0  0  0  0  0  0  0  0  0  0
  175.2460   19.3010   47.1370 C   0  0  0  0  0  0  0  0  0  0  0  0
  174.9920   20.7370   47.3500 C   0  0  0  0  0  0  0  0  0  0  0  0
  175.4320   21.1740   48.6850 N   0  0  1  0  0  0  0  0  0  0  0  0
  175.5490   20.0360   49.6000 C   0  0  0  0  0  0  0  0  0  0  0  0
  176.6530   22.0180   48.6140 C   0  0  2  0  0  0  0  0  0  0  0  0
  176.4560   23.4560   49.1230 C   0  0  0  0  0  0  0  0  0  0  0  0
  177.2380   22.0050   47.1750 C   0  0  0  0  0  0  0  0  0  0  0  0
  178.5690   21.2930   47.0640 C   0  0  0  0  0  0  0  0  0  0  0  0
  178.6810   20.0960   46.3440 C   0  0  0  0  0  0  0  0  0  0  0  0
  179.9130   19.4480   46.2370 C   0  0  0  0  0  0  0  0  0  0  0  0
  181.0420   19.9890   46.8490 C   0  0  0  0  0  0  0  0  0  0  0  0
  180.9400   21.1760   47.5710 C   0  0  0  0  0  0  0  0  0  0  0  0
  179.7110   21.8260   47.6790 C   0  0  0  0  0  0  0  0  0  0  0  0
  175.6329   17.0580   46.7960 H   0  0  0  0  0  0  0  0  0  0  0  0
  175.5380   21.3127   46.5882 H   0  0  0  0  0  0  0  0  0  0  0  0
  173.9084   20.9096   47.2718 H   0  0  0  0  0  0  0  0  0  0  0  0
  174.7110   21.7780   49.0800 H   0  0  0  0  0  0  0  0  0  0  0  0
  175.5120   20.3955   50.6389 H   0  0  0  0  0  0  0  0  0  0  0  0
  174.7180   19.3371   49.4241 H   0  0  0  0  0  0  0  0  0  0  0  0
  176.5048   19.5208   49.4241 H   0  0  0  0  0  0  0  0  0  0  0  0
  177.3776   21.5646   49.3064 H   0  0  0  0  0  0  0  0  0  0  0  0
  176.4556   23.4588   50.2230 H   0  0  0  0  0  0  0  0  0  0  0  0
  177.2756   24.0907   48.7550 H   0  0  0  0  0  0  0  0  0  0  0  0
  175.4959   23.8469   48.7550 H   0  0  0  0  0  0  0  0  0  0  0  0
  176.5187   21.5012   46.5126 H   0  0  0  0  0  0  0  0  0  0  0  0
  177.4102   23.0532   46.8893 H   0  0  0  0  0  0  0  0  0  0  0  0
  177.7926   19.6642   45.8600 H   0  0  0  0  0  0  0  0  0  0  0  0
  179.9926   18.5094   45.6690 H   0  0  0  0  0  0  0  0  0  0  0  0
  182.0129   19.4792   46.7621 H   0  0  0  0  0  0  0  0  0  0  0  0
  181.8306   21.6013   48.0568 H   0  0  0  0  0  0  0  0  0  0  0  0
  179.6369   22.7630   48.2504 H   0  0  0  0  0  0  0  0  0  0  0  0
  1  2  3  0
  2  3  1  0
  3  4  1  0
  4  5  1  0
  4  6  1  0
  6  7  1  0
  6  8  1  0
  8  9  1  0
  9 10  2  0
 10 11  1  0
 11 12  2  0
 12 13  1  0
 13 14  2  0
 14  9  1  0
  1 15  1  0
  3 16  1  0
  3 17  1  0
  4 18  1  1
  5 19  1  0
  5 20  1  0
  5 21  1  0
  6 22  1  1
  7 23  1  0
  7 24  1  0
  7 25  1  0
  8 26  1  0
  8 27  1  0
 10 28  1  0
 11 29  1  0
 12 30  1  0
 13 31  1  0
 14 32  1  0
M  CHG  1   4   1
M  END
>  <meeko>  (3) 
{"is_sidechain": [false], "free_energy": -5.437, "intermolecular_energy": -7.368, "internal_energy": -0.274}

$$$$
selegiline_out
     RDKit          3D

 32 32  0  0  0  0  0  0  0  0999 V2000
  178.2190   23.8080   47.4410 C   0  0  0  0  0  0  0  0  0  0  0  0
  178.9710   22.8720   47.4500 C   0  0  0  0  0  0  0  0  0  0  0  0
  179.8940   21.7240   47.4700 C   0  0  0  0  0  0  0  0  0  0  0  0
  179.7770   20.9120   46.2470 N   0  0  1  0  0  0  0  0  0  0  0  0
  181.0840   20.7180   45.6150 C   0  0  0  0  0  0  0  0  0  0  0  0
  179.0340   19.6490   46.4940 C   0  0  2  0  0  0  0  0  0  0  0  0
  179.6750   18.4050   45.8560 C   0  0  0  0  0  0  0  0  0  0  0  0
  177.5490   19.8010   46.0630 C   0  0  0  0  0  0  0  0  0  0  0  0
  176.6250   20.2080   47.1910 C   0  0  0  0  0  0  0  0  0  0  0  0
  176.7670   19.6480   48.4680 C   0  0  0  0  0  0  0  0  0  0  0  0
  175.9180   20.0330   49.5060 C   0  0  0  0  0  0  0  0  0  0  0  0
  174.9210   20.9800   49.2800 C   0  0  0  0  0  0  0  0  0  0  0  0
  174.7690   21.5400   48.0130 C   0  0  0  0  0  0  0  0  0  0  0  0
  175.6160   21.1570   46.9720 C   0  0  0  0  0  0  0  0  0  0  0  0
  177.5301   24.6655   47.4328 H   0  0  0  0  0  0  0  0  0  0  0  0
  180.9255   22.0969   47.5534 H   0  0  0  0  0  0  0  0  0  0  0  0
  179.6345   21.0893   48.3301 H   0  0  0  0  0  0  0  0  0  0  0  0
  179.2120   21.4270   45.5720 H   0  0  0  0  0  0  0  0  0  0  0  0
  181.8538   20.6037   46.3924 H   0  0  0  0  0  0  0  0  0  0  0  0
  181.0580   19.8139   44.9890 H   0  0  0  0  0  0  0  0  0  0  0  0
  181.3217   21.5907   44.9890 H   0  0  0  0  0  0  0  0  0  0  0  0
  179.0833   19.4735   47.5788 H   0  0  0  0  0  0  0  0  0  0  0  0
  180.0249   17.7260   46.6476 H   0  0  0  0  0  0  0  0  0  0  0  0
  178.9309   17.8882   45.2321 H   0  0  0  0  0  0  0  0  0  0  0  0
  180.5277   18.7110   45.2321 H   0  0  0  0  0  0  0  0  0  0  0  0
  177.4930   20.5666   45.2752 H   0  0  0  0  0  0  0  0  0  0  0  0
  177.2135   18.8132   45.7141 H   0  0  0  0  0  0  0  0  0  0  0  0
  177.5525   18.9005   48.6529 H   0  0  0  0  0  0  0  0  0  0  0  0
  176.0359   19.5880   50.5050 H   0  0  0  0  0  0  0  0  0  0  0  0
  174.2549   21.2851   50.1005 H   0  0  0  0  0  0  0  0  0  0  0  0
  173.9801   22.2852   47.8331 H   0  0  0  0  0  0  0  0  0  0  0  0
  175.4914   21.6021   45.9738 H   0  0  0  0  0  0  0  0  0  0  0  0
  1  2  3  0
  2  3  1  0
  3  4  1  0
  4  5  1  0
  4  6  1  0
  6  7  1  0
  6  8  1  0
  8  9  1  0
  9 10  2  0
 10 11  1  0
 11 12  2  0
 12 13  1  0
 13 14  2  0
 14  9  1  0
  1 15  1  0
  3 16  1  0
  3 17  1  0
  4 18  1  6
  5 19  1  0
  5 20  1  0
  5 21  1  0
  6 22  1  1
  7 23  1  0
  7 24  1  0
  7 25  1  0
  8 26  1  0
  8 27  1  0
 10 28  1  0
 11 29  1  0
 12 30  1  0
 13 31  1  0
 14 32  1  0
M  CHG  1   4   1
M  END
>  <meeko>  (4) 
{"is_sidechain": [false], "free_energy": -5.358, "intermolecular_energy": -6.665, "internal_energy": -0.88}

$$$$
selegiline_out
     RDKit          3D

 32 32  0  0  0  0  0  0  0  0999 V2000
  176.7320   23.9900   49.1260 C   0  0  0  0  0  0  0  0  0  0  0  0
  176.0400   23.0290   48.9250 C   0  0  0  0  0  0  0  0  0  0  0  0
  175.1860   21.8550   48.6770 C   0  0  0  0  0  0  0  0  0  0  0  0
  175.9850   20.6500   48.3970 N   0  0  1  0  0  0  0  0  0  0  0  0
  175.8880   19.6860   49.4960 C   0  0  0  0  0  0  0  0  0  0  0  0
  175.6700   20.0770   47.0620 C   0  0  2  0  0  0  0  0  0  0  0  0
  175.6270   18.5400   47.0300 C   0  0  0  0  0  0  0  0  0  0  0  0
  176.6440   20.6370   45.9890 C   0  0  0  0  0  0  0  0  0  0  0  0
  178.0980   20.6110   46.4110 C   0  0  0  0  0  0  0  0  0  0  0  0
  178.8510   19.4340   46.3060 C   0  0  0  0  0  0  0  0  0  0  0  0
  180.1930   19.4170   46.6880 C   0  0  0  0  0  0  0  0  0  0  0  0
  180.7940   20.5740   47.1800 C   0  0  0  0  0  0  0  0  0  0  0  0
  180.0530   21.7480   47.2920 C   0  0  0  0  0  0  0  0  0  0  0  0
  178.7110   21.7680   46.9110 C   0  0  0  0  0  0  0  0  0  0  0  0
  177.3657   24.8701   49.3101 H   0  0  0  0  0  0  0  0  0  0  0  0
  174.5645   21.6721   49.5659 H   0  0  0  0  0  0  0  0  0  0  0  0
  174.5616   22.0649   47.7960 H   0  0  0  0  0  0  0  0  0  0  0  0
  176.9670   20.9210   48.3470 H   0  0  0  0  0  0  0  0  0  0  0  0
  175.9416   20.2188   50.4569 H   0  0  0  0  0  0  0  0  0  0  0  0
  174.9311   19.1476   49.4281 H   0  0  0  0  0  0  0  0  0  0  0  0
  176.7184   18.9678   49.4281 H   0  0  0  0  0  0  0  0  0  0  0  0
  174.6445   20.3975   46.8260 H   0  0  0  0  0  0  0  0  0  0  0  0
  175.6161   18.1520   48.0592 H   0  0  0  0  0  0  0  0  0  0  0  0
  174.7193   18.2095   46.5039 H   0  0  0  0  0  0  0  0  0  0  0  0
  176.5148   18.1592   46.5039 H   0  0  0  0  0  0  0  0  0  0  0  0
  176.5372   20.0341   45.0752 H   0  0  0  0  0  0  0  0  0  0  0  0
  176.3749   21.6918   45.8311 H   0  0  0  0  0  0  0  0  0  0  0  0
  178.3812   18.5174   45.9199 H   0  0  0  0  0  0  0  0  0  0  0  0
  180.7772   18.4891   46.6006 H   0  0  0  0  0  0  0  0  0  0  0  0
  181.8523   20.5601   47.4795 H   0  0  0  0  0  0  0  0  0  0  0  0
  180.5267   22.6611   47.6816 H   0  0  0  0  0  0  0  0  0  0  0  0
  178.1304   22.6977   47.0036 H   0  0  0  0  0  0  0  0  0  0  0  0
  1  2  3  0
  2  3  1  0
  3  4  1  0
  4  5  1  0
  4  6  1  0
  6  7  1  0
  6  8  1  0
  8  9  1  0
  9 10  2  0
 10 11  1  0
 11 12  2  0
 12 13  1  0
 13 14  2  0
 14  9  1  0
  1 15  1  0
  3 16  1  0
  3 17  1  0
  4 18  1  6
  5 19  1  0
  5 20  1  0
  5 21  1  0
  6 22  1  6
  7 23  1  0
  7 24  1  0
  7 25  1  0
  8 26  1  0
  8 27  1  0
 10 28  1  0
 11 29  1  0
 12 30  1  0
 13 31  1  0
 14 32  1  0
M  CHG  1   4   1
M  END
>  <meeko>  (5) 
{"is_sidechain": [false], "free_energy": -5.342, "intermolecular_energy": -7.012, "internal_energy": -0.513}

$$$$
selegiline_out
     RDKit          3D

 32 32  0  0  0  0  0  0  0  0999 V2000
  175.7340   19.0290   48.0270 C   0  0  0  0  0  0  0  0  0  0  0  0
  176.0230   19.9740   48.7090 C   0  0  0  0  0  0  0  0  0  0  0  0
  176.3800   21.1290   49.5520 C   0  0  0  0  0  0  0  0  0  0  0  0
  176.5170   22.3600   48.7550 N   0  0  1  0  0  0  0  0  0  0  0  0
  175.8140   23.4790   49.3880 C   0  0  0  0  0  0  0  0  0  0  0  0
  177.9380   22.6490   48.4280 C   0  0  2  0  0  0  0  0  0  0  0  0
  178.4060   24.0560   48.8340 C   0  0  0  0  0  0  0  0  0  0  0  0
  178.2140   22.3760   46.9240 C   0  0  0  0  0  0  0  0  0  0  0  0
  179.2530   21.3030   46.6790 C   0  0  0  0  0  0  0  0  0  0  0  0
  178.8800   20.0470   46.1810 C   0  0  0  0  0  0  0  0  0  0  0  0
  179.8430   19.0640   45.9490 C   0  0  0  0  0  0  0  0  0  0  0  0
  181.1860   19.3260   46.2120 C   0  0  0  0  0  0  0  0  0  0  0  0
  181.5670   20.5700   46.7100 C   0  0  0  0  0  0  0  0  0  0  0  0
  180.6060   21.5550   46.9430 C   0  0  0  0  0  0  0  0  0  0  0  0
  175.4692   18.1633   47.4022 H   0  0  0  0  0  0  0  0  0  0  0  0
  175.5929   21.2776   50.3059 H   0  0  0  0  0  0  0  0  0  0  0  0
  177.3479   20.9195   50.0307 H   0  0  0  0  0  0  0  0  0  0  0  0
  176.0600   22.2140   47.8560 H   0  0  0  0  0  0  0  0  0  0  0  0
  175.8764   23.3796   50.4817 H   0  0  0  0  0  0  0  0  0  0  0  0
  176.2794   24.4265   49.0787 H   0  0  0  0  0  0  0  0  0  0  0  0
  174.7584   23.4709   49.0787 H   0  0  0  0  0  0  0  0  0  0  0  0
  178.5374   21.9595   49.0406 H   0  0  0  0  0  0  0  0  0  0  0  0
  178.4312   24.1317   49.9311 H   0  0  0  0  0  0  0  0  0  0  0  0
  179.4131   24.2380   48.4307 H   0  0  0  0  0  0  0  0  0  0  0  0
  177.7086   24.8050   48.4307 H   0  0  0  0  0  0  0  0  0  0  0  0
  177.2724   22.0618   46.4500 H   0  0  0  0  0  0  0  0  0  0  0  0
  178.6096   23.3090   46.4962 H   0  0  0  0  0  0  0  0  0  0  0  0
  177.8212   19.8347   45.9717 H   0  0  0  0  0  0  0  0  0  0  0  0
  179.5414   18.0811   45.5580 H   0  0  0  0  0  0  0  0  0  0  0  0
  181.9446   18.5513   46.0266 H   0  0  0  0  0  0  0  0  0  0  0  0
  182.6269   20.7763   46.9199 H   0  0  0  0  0  0  0  0  0  0  0  0
  180.9126   22.5354   47.3364 H   0  0  0  0  0  0  0  0  0  0  0  0
  1  2  3  0
  2  3  1  0
  3  4  1  0
  4  5  1  0
  4  6  1  0
  6  7  1  0
  6  8  1  0
  8  9  1  0
  9 10  2  0
 10 11  1  0
 11 12  2  0
 12 13  1  0
 13 14  2  0
 14  9  1  0
  1 15  1  0
  3 16  1  0
  3 17  1  0
  4 18  1  6
  5 19  1  0
  5 20  1  0
  5 21  1  0
  6 22  1  1
  7 23  1  0
  7 24  1  0
  7 25  1  0
  8 26  1  0
  8 27  1  0
 10 28  1  0
 11 29  1  0
 12 30  1  0
 13 31  1  0
 14 32  1  0
M  CHG  1   4   1
M  END
>  <meeko>  (6) 
{"is_sidechain": [false], "free_energy": -5.294, "intermolecular_energy": -6.757, "internal_energy": -0.71}

$$$$
selegiline_out
     RDKit          3D

 32 32  0  0  0  0  0  0  0  0999 V2000
  175.5100   20.1810   50.0010 C   0  0  0  0  0  0  0  0  0  0  0  0
  175.2360   20.3930   48.8510 C   0  0  0  0  0  0  0  0  0  0  0  0
  174.8930   20.6550   47.4420 C   0  0  0  0  0  0  0  0  0  0  0  0
  176.0600   21.1260   46.6780 N   0  0  1  0  0  0  0  0  0  0  0  0
  176.7100   22.2550   47.3500 C   0  0  0  0  0  0  0  0  0  0  0  0
  176.9840   20.0120   46.3410 C   0  0  2  0  0  0  0  0  0  0  0  0
  176.2980   18.6420   46.2070 C   0  0  0  0  0  0  0  0  0  0  0  0
  178.1600   19.9570   47.3560 C   0  0  0  0  0  0  0  0  0  0  0  0
  179.5270   20.0230   46.7100 C   0  0  0  0  0  0  0  0  0  0  0  0
  179.9310   19.0440   45.7920 C   0  0  0  0  0  0  0  0  0  0  0  0
  181.1900   19.1140   45.1920 C   0  0  0  0  0  0  0  0  0  0  0  0
  182.0550   20.1610   45.5040 C   0  0  0  0  0  0  0  0  0  0  0  0
  181.6640   21.1370   46.4180 C   0  0  0  0  0  0  0  0  0  0  0  0
  180.4070   21.0700   47.0190 C   0  0  0  0  0  0  0  0  0  0  0  0
  175.7609   19.9868   51.0542 H   0  0  0  0  0  0  0  0  0  0  0  0
  174.5199   19.7257   46.9868 H   0  0  0  0  0  0  0  0  0  0  0  0
  174.1247   21.4417   47.4158 H   0  0  0  0  0  0  0  0  0  0  0  0
  175.7340   21.4840   45.7810 H   0  0  0  0  0  0  0  0  0  0  0  0
  176.6354   22.1254   48.4398 H   0  0  0  0  0  0  0  0  0  0  0  0
  177.7696   22.2953   47.0572 H   0  0  0  0  0  0  0  0  0  0  0  0
  176.2129   23.1916   47.0572 H   0  0  0  0  0  0  0  0  0  0  0  0
  177.3777   20.2353   45.3384 H   0  0  0  0  0  0  0  0  0  0  0  0
  176.0940   18.2346   47.2082 H   0  0  0  0  0  0  0  0  0  0  0  0
  175.3516   18.7579   45.6585 H   0  0  0  0  0  0  0  0  0  0  0  0
  176.9578   17.9537   45.6585 H   0  0  0  0  0  0  0  0  0  0  0  0
  178.0616   20.8069   48.0474 H   0  0  0  0  0  0  0  0  0  0  0  0
  178.0948   18.9867   47.8702 H   0  0  0  0  0  0  0  0  0  0  0  0
  179.2520   18.2153   45.5426 H   0  0  0  0  0  0  0  0  0  0  0  0
  181.4993   18.3418   44.4723 H   0  0  0  0  0  0  0  0  0  0  0  0
  183.0456   20.2168   45.0291 H   0  0  0  0  0  0  0  0  0  0  0  0
  182.3479   21.9621   46.6662 H   0  0  0  0  0  0  0  0  0  0  0  0
  180.1041   21.8436   47.7400 H   0  0  0  0  0  0  0  0  0  0  0  0
  1  2  3  0
  2  3  1  0
  3  4  1  0
  4  5  1  0
  4  6  1  0
  6  7  1  0
  6  8  1  0
  8  9  1  0
  9 10  2  0
 10 11  1  0
 11 12  2  0
 12 13  1  0
 13 14  2  0
 14  9  1  0
  1 15  1  0
  3 16  1  0
  3 17  1  0
  4 18  1  6
  5 19  1  0
  5 20  1  0
  5 21  1  0
  6 22  1  6
  7 23  1  0
  7 24  1  0
  7 25  1  0
  8 26  1  0
  8 27  1  0
 10 28  1  0
 11 29  1  0
 12 30  1  0
 13 31  1  0
 14 32  1  0
M  CHG  1   4   1
M  END
>  <meeko>  (7) 
{"is_sidechain": [false], "free_energy": -5.197, "intermolecular_energy": -7.184, "internal_energy": -0.163}

$$$$
selegiline_out
     RDKit          3D

 32 32  0  0  0  0  0  0  0  0999 V2000
  183.4930   22.5090   46.0420 C   0  0  0  0  0  0  0  0  0  0  0  0
  182.8020   21.5380   45.8880 C   0  0  0  0  0  0  0  0  0  0  0  0
  181.9610   20.3450   45.6940 C   0  0  0  0  0  0  0  0  0  0  0  0
  181.0580   20.1260   46.8360 N   0  0  1  0  0  0  0  0  0  0  0  0
  180.8010   21.3770   47.5530 C   0  0  0  0  0  0  0  0  0  0  0  0
  179.8260   19.3980   46.4320 C   0  0  2  0  0  0  0  0  0  0  0  0
  180.0750   18.2130   45.4840 C   0  0  0  0  0  0  0  0  0  0  0  0
  178.7840   20.3860   45.8380 C   0  0  0  0  0  0  0  0  0  0  0  0
  177.4160   20.2880   46.4790 C   0  0  0  0  0  0  0  0  0  0  0  0
  176.8210   21.4120   47.0690 C   0  0  0  0  0  0  0  0  0  0  0  0
  175.5560   21.3190   47.6510 C   0  0  0  0  0  0  0  0  0  0  0  0
  174.8740   20.1030   47.6500 C   0  0  0  0  0  0  0  0  0  0  0  0
  175.4580   18.9790   47.0690 C   0  0  0  0  0  0  0  0  0  0  0  0
  176.7230   19.0700   46.4860 C   0  0  0  0  0  0  0  0  0  0  0  0
  184.1255   23.3978   46.1830 H   0  0  0  0  0  0  0  0  0  0  0  0
  181.3587   20.4773   44.7831 H   0  0  0  0  0  0  0  0  0  0  0  0
  182.6213   19.4697   45.6052 H   0  0  0  0  0  0  0  0  0  0  0  0
  181.5250   19.5110   47.5020 H   0  0  0  0  0  0  0  0  0  0  0  0
  180.8388   21.1929   48.6368 H   0  0  0  0  0  0  0  0  0  0  0  0
  181.5653   22.1196   47.2803 H   0  0  0  0  0  0  0  0  0  0  0  0
  179.8058   21.7581   47.2803 H   0  0  0  0  0  0  0  0  0  0  0  0
  179.4215   18.9493   47.3513 H   0  0  0  0  0  0  0  0  0  0  0  0
  180.2658   17.3048   46.0746 H   0  0  0  0  0  0  0  0  0  0  0  0
  179.1897   18.0586   44.8497 H   0  0  0  0  0  0  0  0  0  0  0  0
  180.9476   18.4280   44.8497 H   0  0  0  0  0  0  0  0  0  0  0  0
  179.1593   21.4107   45.9762 H   0  0  0  0  0  0  0  0  0  0  0  0
  178.6608   20.1228   44.7771 H   0  0  0  0  0  0  0  0  0  0  0  0
  177.3549   22.3738   47.0732 H   0  0  0  0  0  0  0  0  0  0  0  0
  175.0964   22.2062   48.1111 H   0  0  0  0  0  0  0  0  0  0  0  0
  173.8761   20.0309   48.1073 H   0  0  0  0  0  0  0  0  0  0  0  0
  174.9214   18.0188   47.0698 H   0  0  0  0  0  0  0  0  0  0  0  0
  177.1791   18.1795   46.0289 H   0  0  0  0  0  0  0  0  0  0  0  0
  1  2  3  0
  2  3  1  0
  3  4  1  0
  4  5  1  0
  4  6  1  0
  6  7  1  0
  6  8  1  0
  8  9  1  0
  9 10  2  0
 10 11  1  0
 11 12  2  0
 12 13  1  0
 13 14  2  0
 14  9  1  0
  1 15  1  0
  3 16  1  0
  3 17  1  0
  4 18  1  1
  5 19  1  0
  5 20  1  0
  5 21  1  0
  6 22  1  1
  7 23  1  0
  7 24  1  0
  7 25  1  0
  8 26  1  0
  8 27  1  0
 10 28  1  0
 11 29  1  0
 12 30  1  0
 13 31  1  0
 14 32  1  0
M  CHG  1   4   1
M  END
>  <meeko>  (8) 
{"is_sidechain": [false], "free_energy": -5.106, "intermolecular_energy": -7.08, "internal_energy": -0.155}

$$$$
selegiline_out
     RDKit          3D

 32 32  0  0  0  0  0  0  0  0999 V2000
  183.8480   22.5560   45.3280 C   0  0  0  0  0  0  0  0  0  0  0  0
  183.0800   21.7840   45.8360 C   0  0  0  0  0  0  0  0  0  0  0  0
  182.1430   20.8370   46.4660 C   0  0  0  0  0  0  0  0  0  0  0  0
  180.9120   20.6840   45.6730 N   0  0  1  0  0  0  0  0  0  0  0  0
  180.8270   19.3460   45.0830 C   0  0  0  0  0  0  0  0  0  0  0  0
  179.7050   21.0790   46.4470 C   0  0  2  0  0  0  0  0  0  0  0  0
  179.8090   20.8110   47.9570 C   0  0  0  0  0  0  0  0  0  0  0  0
  178.4350   20.4190   45.8430 C   0  0  0  0  0  0  0  0  0  0  0  0
  177.2310   20.4640   46.7590 C   0  0  0  0  0  0  0  0  0  0  0  0
  176.6500   19.2800   47.2340 C   0  0  0  0  0  0  0  0  0  0  0  0
  175.5450   19.3270   48.0850 C   0  0  0  0  0  0  0  0  0  0  0  0
  175.0100   20.5550   48.4690 C   0  0  0  0  0  0  0  0  0  0  0  0
  175.5780   21.7380   48.0000 C   0  0  0  0  0  0  0  0  0  0  0  0
  176.6830   21.6940   47.1490 C   0  0  0  0  0  0  0  0  0  0  0  0
  184.5511   23.2627   44.8630 H   0  0  0  0  0  0  0  0  0  0  0  0
  182.6334   19.8566   46.5566 H   0  0  0  0  0  0  0  0  0  0  0  0
  181.8681   21.2317   47.4553 H   0  0  0  0  0  0  0  0  0  0  0  0
  180.9510   21.3350   44.8890 H   0  0  0  0  0  0  0  0  0  0  0  0
  180.7792   18.5942   45.8846 H   0  0  0  0  0  0  0  0  0  0  0  0
  179.9226   19.2765   44.4607 H   0  0  0  0  0  0  0  0  0  0  0  0
  181.7153   19.1626   44.4607 H   0  0  0  0  0  0  0  0  0  0  0  0
  179.6270   22.1723   46.3545 H   0  0  0  0  0  0  0  0  0  0  0  0
  179.4652   21.6969   48.5112 H   0  0  0  0  0  0  0  0  0  0  0  0
  179.1808   19.9472   48.2202 H   0  0  0  0  0  0  0  0  0  0  0  0
  180.8554   20.5971   48.2202 H   0  0  0  0  0  0  0  0  0  0  0  0
  178.1813   20.9438   44.9101 H   0  0  0  0  0  0  0  0  0  0  0  0
  178.6726   19.3579   45.6768 H   0  0  0  0  0  0  0  0  0  0  0  0
  177.0678   18.3076   46.9340 H   0  0  0  0  0  0  0  0  0  0  0  0
  175.0955   18.3930   48.4533 H   0  0  0  0  0  0  0  0  0  0  0  0
  174.1403   20.5906   49.1416 H   0  0  0  0  0  0  0  0  0  0  0  0
  175.1548   22.7077   48.3010 H   0  0  0  0  0  0  0  0  0  0  0  0
  177.1271   22.6309   46.7816 H   0  0  0  0  0  0  0  0  0  0  0  0
  1  2  3  0
  2  3  1  0
  3  4  1  0
  4  5  1  0
  4  6  1  0
  6  7  1  0
  6  8  1  0
  8  9  1  0
  9 10  2  0
 10 11  1  0
 11 12  2  0
 12 13  1  0
 13 14  2  0
 14  9  1  0
  1 15  1  0
  3 16  1  0
  3 17  1  0
  4 18  1  6
  5 19  1  0
  5 20  1  0
  5 21  1  0
  6 22  1  1
  7 23  1  0
  7 24  1  0
  7 25  1  0
  8 26  1  0
  8 27  1  0
 10 28  1  0
 11 29  1  0
 12 30  1  0
 13 31  1  0
 14 32  1  0
M  CHG  1   4   1
M  END
>  <meeko>  (9) 
{"is_sidechain": [false], "free_energy": -4.968, "intermolecular_energy": -6.819, "internal_energy": -0.246}

$$$$
