VP7_out
     RDKit          3D

 45 48  0  0  0  0  0  0  0  0999 V2000
  180.6270   14.3680   43.6880 C   0  0  0  0  0  0  0  0  0  0  0  0
  181.3510   15.5050   42.9710 C   0  0  0  0  0  0  0  0  0  0  0  0
  180.8220   15.6690   41.5480 C   0  0  0  0  0  0  0  0  0  0  0  0
  182.7350   15.1670   42.8810 O   0  0  0  0  0  0  0  0  0  0  0  0
  181.2120   16.7620   43.7230 C   0  0  0  0  0  0  0  0  0  0  0  0
  181.1010   17.7840   44.3450 C   0  0  0  0  0  0  0  0  0  0  0  0
  180.9640   18.9980   45.0900 C   0  0  0  0  0  0  0  0  0  0  0  0
  182.0230   19.9010   45.1460 C   0  0  0  0  0  0  0  0  0  0  0  0
  181.9140   21.0900   45.8720 C   0  0  0  0  0  0  0  0  0  0  0  0
  180.7050   21.3380   46.5350 C   0  0  0  0  0  0  0  0  0  0  0  0
  180.3350   22.4030   47.3110 N   0  0  0  0  0  0  0  0  0  0  0  0
  179.0540   22.2520   47.7950 C   0  0  0  0  0  0  0  0  0  0  0  0
  178.5570   21.0520   47.2910 C   0  0  0  0  0  0  0  0  0  0  0  0
  179.6200   20.4680   46.4990 C   0  0  0  0  0  0  0  0  0  0  0  0
  179.7650   19.2690   45.7600 C   0  0  0  0  0  0  0  0  0  0  0  0
  177.2140   20.4960   47.5210 C   0  0  0  0  0  0  0  0  0  0  0  0
  176.8280   19.6020   46.5810 N   0  0  0  0  0  0  0  0  0  0  0  0
  175.6450   19.0110   46.7240 C   0  0  0  0  0  0  0  0  0  0  0  0
  175.2570   18.1150   45.7490 N   0  0  0  0  0  0  0  0  0  0  0  0
  174.7900   19.2560   47.7110 N   0  0  0  0  0  0  0  0  0  0  0  0
  175.1910   20.1540   48.6260 C   0  0  0  0  0  0  0  0  0  0  0  0
  176.3990   20.8290   48.5880 C   0  0  0  0  0  0  0  0  0  0  0  0
  176.7220   21.8270   49.6560 C   0  0  0  0  0  0  0  0  0  0  0  0
  177.0550   23.1910   49.0640 C   0  0  0  0  0  0  0  0  0  0  0  0
  178.5240   23.3150   48.6990 C   0  0  0  0  0  0  0  0  0  0  0  0
  180.7147   14.5058   44.7758 H   0  0  0  0  0  0  0  0  0  0  0  0
  179.5647   14.3719   43.4024 H   0  0  0  0  0  0  0  0  0  0  0  0
  181.0799   13.4071   43.4024 H   0  0  0  0  0  0  0  0  0  0  0  0
  179.7719   15.9946   41.5825 H   0  0  0  0  0  0  0  0  0  0  0  0
  181.4225   16.4231   41.0182 H   0  0  0  0  0  0  0  0  0  0  0  0
  180.8906   14.7074   41.0182 H   0  0  0  0  0  0  0  0  0  0  0  0
  183.2210   15.9000   42.4700 H   0  0  0  0  0  0  0  0  0  0  0  0
  182.9576   19.6752   44.6116 H   0  0  0  0  0  0  0  0  0  0  0  0
  182.7478   21.8058   45.9212 H   0  0  0  0  0  0  0  0  0  0  0  0
  180.9110   23.1780   47.5020 H   0  0  0  0  0  0  0  0  0  0  0  0
  178.9344   18.5494   45.7122 H   0  0  0  0  0  0  0  0  0  0  0  0
  174.4930   18.3250   45.1630 H   0  0  0  0  0  0  0  0  0  0  0  0
  175.7440   17.2670   45.6380 H   0  0  0  0  0  0  0  0  0  0  0  0
  174.5118   20.3680   49.4644 H   0  0  0  0  0  0  0  0  0  0  0  0
  175.8538   21.9295   50.3237 H   0  0  0  0  0  0  0  0  0  0  0  0
  177.6018   21.4672   50.2097 H   0  0  0  0  0  0  0  0  0  0  0  0
  176.4508   23.3406   48.1570 H   0  0  0  0  0  0  0  0  0  0  0  0
  176.8306   23.9531   49.8248 H   0  0  0  0  0  0  0  0  0  0  0  0
  178.6689   24.2856   48.2020 H   0  0  0  0  0  0  0  0  0  0  0  0
  179.0792   23.2127   49.6431 H   0  0  0  0  0  0  0  0  0  0  0  0
  1  2  1  0
  2  3  1  0
  2  4  1  0
  2  5  1  0
  5  6  3  0
  6  7  1  0
  7  8  2  0
  8  9  1  0
  9 10  2  0
 10 11  1  0
 11 12  1  0
 12 13  2  0
 13 14  1  0
 14 15  2  0
 13 16  1  0
 16 17  2  0
 17 18  1  0
 18 19  1  0
 18 20  2  0
 20 21  1  0
 21 22  2  0
 22 23  1  0
 23 24  1  0
 24 25  1  0
 15  7  1  0
 22 16  1  0
 14 10  1  0
 25 12  1  0
  1 26  1  0
  1 27  1  0
  1 28  1  0
  3 29  1  0
  3 30  1  0
  3 31  1  0
  4 32  1  0
  8 33  1  0
  9 34  1  0
 11 35  1  0
 15 36  1  0
 19 37  1  0
 19 38  1  0
 21 39  1  0
 23 40  1  0
 23 41  1  0
 24 42  1  0
 24 43  1  0
 25 44  1  0
 25 45  1  0
M  END
>  <meeko>  (1) 
{"is_sidechain": [false], "free_energy": -8.806, "intermolecular_energy": -11.895, "internal_energy": 0.703}

$$$$
VP7_out
     RDKit          3D

 45 48  0  0  0  0  0  0  0  0999 V2000
  185.7800   22.4950   44.2050 C   0  0  0  0  0  0  0  0  0  0  0  0
  184.9190   23.0490   45.3380 C   0  0  0  0  0  0  0  0  0  0  0  0
  184.5470   24.5060   45.0710 C   0  0  0  0  0  0  0  0  0  0  0  0
  185.6880   23.0130   46.5410 O   0  0  0  0  0  0  0  0  0  0  0  0
  183.7110   22.2300   45.5180 C   0  0  0  0  0  0  0  0  0  0  0  0
  182.7280   21.5540   45.6640 C   0  0  0  0  0  0  0  0  0  0  0  0
  181.5540   20.7540   45.8370 C   0  0  0  0  0  0  0  0  0  0  0  0
  181.5040   19.4700   45.2990 C   0  0  0  0  0  0  0  0  0  0  0  0
  180.3660   18.6730   45.4510 C   0  0  0  0  0  0  0  0  0  0  0  0
  179.2860   19.2120   46.1620 C   0  0  0  0  0  0  0  0  0  0  0  0
  178.0650   18.6630   46.4500 N   0  0  0  0  0  0  0  0  0  0  0  0
  177.2750   19.5370   47.1630 C   0  0  0  0  0  0  0  0  0  0  0  0
  178.0200   20.6940   47.3740 C   0  0  0  0  0  0  0  0  0  0  0  0
  179.2960   20.4860   46.7210 C   0  0  0  0  0  0  0  0  0  0  0  0
  180.4620   21.2700   46.5450 C   0  0  0  0  0  0  0  0  0  0  0  0
  177.5880   21.8890   48.1160 C   0  0  0  0  0  0  0  0  0  0  0  0
  178.6130   22.6510   48.5630 N   0  0  0  0  0  0  0  0  0  0  0  0
  178.3250   23.7770   49.2100 C   0  0  0  0  0  0  0  0  0  0  0  0
  179.3800   24.5340   49.6760 N   0  0  0  0  0  0  0  0  0  0  0  0
  177.0950   24.2000   49.4830 N   0  0  0  0  0  0  0  0  0  0  0  0
  176.0940   23.4220   49.0390 C   0  0  0  0  0  0  0  0  0  0  0  0
  176.2690   22.2340   48.3490 C   0  0  0  0  0  0  0  0  0  0  0  0
  175.0710   21.4410   47.9270 C   0  0  0  0  0  0  0  0  0  0  0  0
  175.1310   20.0100   48.4540 C   0  0  0  0  0  0  0  0  0  0  0  0
  175.8930   19.0950   47.5120 C   0  0  0  0  0  0  0  0  0  0  0  0
  186.6338   21.9456   44.6283 H   0  0  0  0  0  0  0  0  0  0  0  0
  185.1772   21.8149   43.5853 H   0  0  0  0  0  0  0  0  0  0  0  0
  186.1492   23.3255   43.5853 H   0  0  0  0  0  0  0  0  0  0  0  0
  184.4128   25.0315   46.0280 H   0  0  0  0  0  0  0  0  0  0  0  0
  185.3503   24.9902   44.4963 H   0  0  0  0  0  0  0  0  0  0  0  0
  183.6099   24.5458   44.4963 H   0  0  0  0  0  0  0  0  0  0  0  0
  185.1570   23.3620   47.2740 H   0  0  0  0  0  0  0  0  0  0  0  0
  182.3714   19.0783   44.7474 H   0  0  0  0  0  0  0  0  0  0  0  0
  180.3200   17.6588   45.0275 H   0  0  0  0  0  0  0  0  0  0  0  0
  177.7870   17.7570   46.1800 H   0  0  0  0  0  0  0  0  0  0  0  0
  180.5098   22.2855   46.9650 H   0  0  0  0  0  0  0  0  0  0  0  0
  180.0230   24.1440   50.3130 H   0  0  0  0  0  0  0  0  0  0  0  0
  179.4910   25.4630   49.3710 H   0  0  0  0  0  0  0  0  0  0  0  0
  175.0634   23.7515   49.2373 H   0  0  0  0  0  0  0  0  0  0  0  0
  174.1651   21.9276   48.3175 H   0  0  0  0  0  0  0  0  0  0  0  0
  175.0533   21.4026   46.8278 H   0  0  0  0  0  0  0  0  0  0  0  0
  175.6329   20.0115   49.4328 H   0  0  0  0  0  0  0  0  0  0  0  0
  174.1011   19.6330   48.5391 H   0  0  0  0  0  0  0  0  0  0  0  0
  175.9636   18.1046   47.9854 H   0  0  0  0  0  0  0  0  0  0  0  0
  175.3285   19.0968   46.5679 H   0  0  0  0  0  0  0  0  0  0  0  0
  1  2  1  0
  2  3  1  0
  2  4  1  0
  2  5  1  0
  5  6  3  0
  6  7  1  0
  7  8  2  0
  8  9  1  0
  9 10  2  0
 10 11  1  0
 11 12  1  0
 12 13  2  0
 13 14  1  0
 14 15  2  0
 13 16  1  0
 16 17  2  0
 17 18  1  0
 18 19  1  0
 18 20  2  0
 20 21  1  0
 21 22  2  0
 22 23  1  0
 23 24  1  0
 24 25  1  0
 15  7  1  0
 22 16  1  0
 14 10  1  0
 25 12  1  0
  1 26  1  0
  1 27  1  0
  1 28  1  0
  3 29  1  0
  3 30  1  0
  3 31  1  0
  4 32  1  0
  8 33  1  0
  9 34  1  0
 11 35  1  0
 15 36  1  0
 19 37  1  0
 19 38  1  0
 21 39  1  0
 23 40  1  0
 23 41  1  0
 24 42  1  0
 24 43  1  0
 25 44  1  0
 25 45  1  0
M  END
>  <meeko>  (2) 
{"is_sidechain": [false], "free_energy": -8.282, "intermolecular_energy": -11.191, "internal_energy": 0.707}

$$$$
VP7_out
     RDKit          3D

 45 48  0  0  0  0  0  0  0  0999 V2000
  185.8470   23.6520   47.6820 C   0  0  0  0  0  0  0  0  0  0  0  0
  184.9890   23.9810   46.4630 C   0  0  0  0  0  0  0  0  0  0  0  0
  185.8430   24.0280   45.1980 C   0  0  0  0  0  0  0  0  0  0  0  0
  184.4240   25.2790   46.6510 O   0  0  0  0  0  0  0  0  0  0  0  0
  183.9010   23.0020   46.3160 C   0  0  0  0  0  0  0  0  0  0  0  0
  183.0100   22.2030   46.2060 C   0  0  0  0  0  0  0  0  0  0  0  0
  181.9450   21.2560   46.0740 C   0  0  0  0  0  0  0  0  0  0  0  0
  182.1230   20.1160   45.2940 C   0  0  0  0  0  0  0  0  0  0  0  0
  181.0960   19.1800   45.1470 C   0  0  0  0  0  0  0  0  0  0  0  0
  179.8880   19.4310   45.8110 C   0  0  0  0  0  0  0  0  0  0  0  0
  178.7330   18.6980   45.8340 N   0  0  0  0  0  0  0  0  0  0  0  0
  177.7650   19.3070   46.6020 C   0  0  0  0  0  0  0  0  0  0  0  0
  178.3210   20.4730   47.1250 C   0  0  0  0  0  0  0  0  0  0  0  0
  179.6700   20.5530   46.6060 C   0  0  0  0  0  0  0  0  0  0  0  0
  180.7300   21.4840   46.7300 C   0  0  0  0  0  0  0  0  0  0  0  0
  177.6600   21.4280   48.0280 C   0  0  0  0  0  0  0  0  0  0  0  0
  178.2680   22.6360   48.0800 N   0  0  0  0  0  0  0  0  0  0  0  0
  177.7200   23.5830   48.8370 C   0  0  0  0  0  0  0  0  0  0  0  0
  178.3610   24.8040   48.8950 N   0  0  0  0  0  0  0  0  0  0  0  0
  176.6300   23.4240   49.5790 N   0  0  0  0  0  0  0  0  0  0  0  0
  176.0500   22.2130   49.5200 C   0  0  0  0  0  0  0  0  0  0  0  0
  176.5210   21.1530   48.7650 C   0  0  0  0  0  0  0  0  0  0  0  0
  175.7990   19.8420   48.8000 C   0  0  0  0  0  0  0  0  0  0  0  0
  175.3550   19.4340   47.4170 C   0  0  0  0  0  0  0  0  0  0  0  0
  176.4290   18.6470   46.6860 C   0  0  0  0  0  0  0  0  0  0  0  0
  185.2798   23.8695   48.5991 H   0  0  0  0  0  0  0  0  0  0  0  0
  186.1181   22.5861   47.6627 H   0  0  0  0  0  0  0  0  0  0  0  0
  186.7613   24.2633   47.6627 H   0  0  0  0  0  0  0  0  0  0  0  0
  186.9059   24.0865   45.4751 H   0  0  0  0  0  0  0  0  0  0  0  0
  185.6685   23.1189   44.6038 H   0  0  0  0  0  0  0  0  0  0  0  0
  185.5698   24.9125   44.6038 H   0  0  0  0  0  0  0  0  0  0  0  0
  183.4670   25.2410   46.4980 H   0  0  0  0  0  0  0  0  0  0  0  0
  183.0850   19.9502   44.7869 H   0  0  0  0  0  0  0  0  0  0  0  0
  181.2311   18.2781   44.5318 H   0  0  0  0  0  0  0  0  0  0  0  0
  178.6080   17.8430   45.3610 H   0  0  0  0  0  0  0  0  0  0  0  0
  180.5981   22.3878   47.3429 H   0  0  0  0  0  0  0  0  0  0  0  0
  177.9140   25.6110   48.5500 H   0  0  0  0  0  0  0  0  0  0  0  0
  179.2650   24.8670   49.2790 H   0  0  0  0  0  0  0  0  0  0  0  0
  175.1375   22.0532   50.1131 H   0  0  0  0  0  0  0  0  0  0  0  0
  176.4717   19.0712   49.2042 H   0  0  0  0  0  0  0  0  0  0  0  0
  174.9089   19.9482   49.4375 H   0  0  0  0  0  0  0  0  0  0  0  0
  174.4532   18.8099   47.5027 H   0  0  0  0  0  0  0  0  0  0  0  0
  175.1512   20.3486   46.8409 H   0  0  0  0  0  0  0  0  0  0  0  0
  176.5579   17.6862   47.2058 H   0  0  0  0  0  0  0  0  0  0  0  0
  176.0763   18.5466   45.6489 H   0  0  0  0  0  0  0  0  0  0  0  0
  1  2  1  0
  2  3  1  0
  2  4  1  0
  2  5  1  0
  5  6  3  0
  6  7  1  0
  7  8  2  0
  8  9  1  0
  9 10  2  0
 10 11  1  0
 11 12  1  0
 12 13  2  0
 13 14  1  0
 14 15  2  0
 13 16  1  0
 16 17  2  0
 17 18  1  0
 18 19  1  0
 18 20  2  0
 20 21  1  0
 21 22  2  0
 22 23  1  0
 23 24  1  0
 24 25  1  0
 15  7  1  0
 22 16  1  0
 14 10  1  0
 25 12  1  0
  1 26  1  0
  1 27  1  0
  1 28  1  0
  3 29  1  0
  3 30  1  0
  3 31  1  0
  4 32  1  0
  8 33  1  0
  9 34  1  0
 11 35  1  0
 15 36  1  0
 19 37  1  0
 19 38  1  0
 21 39  1  0
 23 40  1  0
 23 41  1  0
 24 42  1  0
 24 43  1  0
 25 44  1  0
 25 45  1  0
M  END
>  <meeko>  (3) 
{"is_sidechain": [false], "free_energy": -6.947, "intermolecular_energy": -9.463, "internal_energy": 0.782}

$$$$
