native_DTQ_out
     RDKit          3D

 37 39  0  0  0  0  0  0  0  0999 V2000
   67.6250   24.9330   22.1360 C   0  0  0  0  0  0  0  0  0  0  0  0
   67.0810   23.8120   21.4460 O   0  0  0  0  0  0  0  0  0  0  0  0
   66.2520   23.0000   22.1770 C   0  0  0  0  0  0  0  0  0  0  0  0
   66.9370   22.0600   22.9600 C   0  0  0  0  0  0  0  0  0  0  0  0
   66.2810   21.1540   23.7790 C   0  0  0  0  0  0  0  0  0  0  0  0
   67.0080   20.2700   24.4710 N   0  0  0  0  0  0  0  0  0  0  0  0
   66.3380   19.3950   25.2280 C   0  0  0  0  0  0  0  0  0  0  0  0
   65.0120   19.3330   25.3750 N   0  0  0  0  0  0  0  0  0  0  0  0
   64.2980   20.2510   24.7000 C   0  0  0  0  0  0  0  0  0  0  0  0
   62.9020   20.1700   24.9070 N   0  0  0  0  0  0  0  0  0  0  0  0
   62.2430   19.3120   25.8270 C   0  0  0  0  0  0  0  0  0  0  0  0
   62.3400   17.9150   25.7690 C   0  0  0  0  0  0  0  0  0  0  0  0
   61.6340   17.1150   26.6730 C   0  0  0  0  0  0  0  0  0  0  0  0
   60.8110   17.7030   27.6290 C   0  0  0  0  0  0  0  0  0  0  0  0
   60.6870   19.0870   27.6680 C   0  0  0  0  0  0  0  0  0  0  0  0
   59.8610   19.6220   28.6120 O   0  0  0  0  0  0  0  0  0  0  0  0
   61.3840   19.8920   26.7710 C   0  0  0  0  0  0  0  0  0  0  0  0
   64.8860   21.1970   23.8390 C   0  0  0  0  0  0  0  0  0  0  0  0
   64.1850   22.1480   23.0470 C   0  0  0  0  0  0  0  0  0  0  0  0
   64.8570   23.0690   22.2380 C   0  0  0  0  0  0  0  0  0  0  0  0
   64.2230   24.0380   21.5090 O   0  0  0  0  0  0  0  0  0  0  0  0
   63.1870   23.6260   20.6250 C   0  0  0  0  0  0  0  0  0  0  0  0
   67.5457   24.7696   23.2209 H   0  0  0  0  0  0  0  0  0  0  0  0
   68.6827   25.0555   21.8600 H   0  0  0  0  0  0  0  0  0  0  0  0
   67.0667   25.8397   21.8600 H   0  0  0  0  0  0  0  0  0  0  0  0
   68.0362   22.0407   22.9231 H   0  0  0  0  0  0  0  0  0  0  0  0
   66.9355   18.6562   25.7822 H   0  0  0  0  0  0  0  0  0  0  0  0
   62.3350   20.7620   24.3640 H   0  0  0  0  0  0  0  0  0  0  0  0
   62.9769   17.4438   25.0059 H   0  0  0  0  0  0  0  0  0  0  0  0
   61.7292   16.0200   26.6284 H   0  0  0  0  0  0  0  0  0  0  0  0
   60.2627   17.0771   28.3485 H   0  0  0  0  0  0  0  0  0  0  0  0
   59.4140   19.0620   29.2160 H   0  0  0  0  0  0  0  0  0  0  0  0
   61.2605   20.9846   26.8030 H   0  0  0  0  0  0  0  0  0  0  0  0
   63.0853   22.1591   23.0717 H   0  0  0  0  0  0  0  0  0  0  0  0
   62.3213   23.2817   21.2098 H   0  0  0  0  0  0  0  0  0  0  0  0
   62.8875   24.4735   19.9909 H   0  0  0  0  0  0  0  0  0  0  0  0
   63.5513   22.8043   19.9909 H   0  0  0  0  0  0  0  0  0  0  0  0
  1  2  1  0
  2  3  1  0
  3  4  2  0
  4  5  1  0
  5  6  2  0
  6  7  1  0
  7  8  2  0
  8  9  1  0
  9 10  1  0
 10 11  1  0
 11 12  2  0
 12 13  1  0
 13 14  2  0
 14 15  1  0
 15 16  1  0
 15 17  2  0
  9 18  2  0
 18 19  1  0
 19 20  2  0
 20 21  1  0
 21 22  1  0
 20  3  1  0
 18  5  1  0
 17 11  1  0
  1 23  1  0
  1 24  1  0
  1 25  1  0
  4 26  1  0
  7 27  1  0
 10 28  1  0
 12 29  1  0
 13 30  1  0
 14 31  1  0
 16 32  1  0
 17 33  1  0
 19 34  1  0
 22 35  1  0
 22 36  1  0
 22 37  1  0
M  END
>  <meeko>  (1) 
{"is_sidechain": [false], "free_energy": -8.451, "intermolecular_energy": -10.674, "internal_energy": -0.152}

$$$$
native_DTQ_out
     RDKit          3D

 37 39  0  0  0  0  0  0  0  0999 V2000
   67.6760   25.0490   17.8040 C   0  0  0  0  0  0  0  0  0  0  0  0
   68.1820   25.0050   19.1340 O   0  0  0  0  0  0  0  0  0  0  0  0
   67.3060   24.5750   20.0980 C   0  0  0  0  0  0  0  0  0  0  0  0
   65.9880   24.4450   19.6390 C   0  0  0  0  0  0  0  0  0  0  0  0
   64.9540   24.0130   20.4550 C   0  0  0  0  0  0  0  0  0  0  0  0
   63.7180   23.9450   19.9460 N   0  0  0  0  0  0  0  0  0  0  0  0
   62.7440   23.5500   20.7730 C   0  0  0  0  0  0  0  0  0  0  0  0
   62.8910   23.1970   22.0520 N   0  0  0  0  0  0  0  0  0  0  0  0
   64.1440   23.2380   22.5380 C   0  0  0  0  0  0  0  0  0  0  0  0
   64.2590   22.8270   23.8850 N   0  0  0  0  0  0  0  0  0  0  0  0
   64.3570   21.4870   24.3460 C   0  0  0  0  0  0  0  0  0  0  0  0
   63.2460   20.7490   24.7780 C   0  0  0  0  0  0  0  0  0  0  0  0
   63.4030   19.4480   25.2640 C   0  0  0  0  0  0  0  0  0  0  0  0
   64.6730   18.8810   25.3400 C   0  0  0  0  0  0  0  0  0  0  0  0
   65.7790   19.6210   24.9420 C   0  0  0  0  0  0  0  0  0  0  0  0
   67.0050   19.0340   25.0450 O   0  0  0  0  0  0  0  0  0  0  0  0
   65.6330   20.9190   24.4590 C   0  0  0  0  0  0  0  0  0  0  0  0
   65.2460   23.6750   21.7790 C   0  0  0  0  0  0  0  0  0  0  0  0
   66.5810   23.8050   22.2510 C   0  0  0  0  0  0  0  0  0  0  0  0
   67.6190   24.2240   21.4150 C   0  0  0  0  0  0  0  0  0  0  0  0
   68.9260   24.3030   21.8130 O   0  0  0  0  0  0  0  0  0  0  0  0
   69.3540   25.5110   22.4340 C   0  0  0  0  0  0  0  0  0  0  0  0
   66.5805   25.1443   17.8315 H   0  0  0  0  0  0  0  0  0  0  0  0
   68.1061   25.9131   17.2765 H   0  0  0  0  0  0  0  0  0  0  0  0
   67.9505   24.1236   17.2765 H   0  0  0  0  0  0  0  0  0  0  0  0
   65.7657   24.6954   18.5912 H   0  0  0  0  0  0  0  0  0  0  0  0
   61.7251   23.5124   20.3601 H   0  0  0  0  0  0  0  0  0  0  0  0
   64.2740   23.5360   24.5680 H   0  0  0  0  0  0  0  0  0  0  0  0
   62.2426   21.1976   24.7341 H   0  0  0  0  0  0  0  0  0  0  0  0
   62.5233   18.8717   25.5866 H   0  0  0  0  0  0  0  0  0  0  0  0
   64.7992   17.8538   25.7128 H   0  0  0  0  0  0  0  0  0  0  0  0
   67.7780   19.5290   24.8600 H   0  0  0  0  0  0  0  0  0  0  0  0
   66.5204   21.4991   24.1658 H   0  0  0  0  0  0  0  0  0  0  0  0
   66.8024   23.5694   23.3024 H   0  0  0  0  0  0  0  0  0  0  0  0
   69.3132   25.3957   23.5272 H   0  0  0  0  0  0  0  0  0  0  0  0
   70.3863   25.7352   22.1272 H   0  0  0  0  0  0  0  0  0  0  0  0
   68.6931   26.3351   22.1272 H   0  0  0  0  0  0  0  0  0  0  0  0
  1  2  1  0
  2  3  1  0
  3  4  2  0
  4  5  1  0
  5  6  2  0
  6  7  1  0
  7  8  2  0
  8  9  1  0
  9 10  1  0
 10 11  1  0
 11 12  2  0
 12 13  1  0
 13 14  2  0
 14 15  1  0
 15 16  1  0
 15 17  2  0
  9 18  2  0
 18 19  1  0
 19 20  2  0
 20 21  1  0
 21 22  1  0
 20  3  1  0
 18  5  1  0
 17 11  1  0
  1 23  1  0
  1 24  1  0
  1 25  1  0
  4 26  1  0
  7 27  1  0
 10 28  1  0
 12 29  1  0
 13 30  1  0
 14 31  1  0
 16 32  1  0
 17 33  1  0
 19 34  1  0
 22 35  1  0
 22 36  1  0
 22 37  1  0
M  END
>  <meeko>  (2) 
{"is_sidechain": [false], "free_energy": -7.912, "intermolecular_energy": -9.466, "internal_energy": -0.68}

$$$$
native_DTQ_out
     RDKit          3D

 37 39  0  0  0  0  0  0  0  0999 V2000
   67.5310   25.0920   17.6700 C   0  0  0  0  0  0  0  0  0  0  0  0
   68.0680   25.0920   18.9890 O   0  0  0  0  0  0  0  0  0  0  0  0
   67.2260   24.6610   19.9820 C   0  0  0  0  0  0  0  0  0  0  0  0
   65.9040   24.4730   19.5540 C   0  0  0  0  0  0  0  0  0  0  0  0
   64.9020   24.0300   20.4020 C   0  0  0  0  0  0  0  0  0  0  0  0
   63.6600   23.9060   19.9210 N   0  0  0  0  0  0  0  0  0  0  0  0
   62.7160   23.5030   20.7780 C   0  0  0  0  0  0  0  0  0  0  0  0
   62.8990   23.1910   22.0630 N   0  0  0  0  0  0  0  0  0  0  0  0
   64.1590   23.2870   22.5220 C   0  0  0  0  0  0  0  0  0  0  0  0
   64.3140   22.9200   23.8780 N   0  0  0  0  0  0  0  0  0  0  0  0
   64.7140   21.6440   24.3570 C   0  0  0  0  0  0  0  0  0  0  0  0
   66.0520   21.2270   24.3850 C   0  0  0  0  0  0  0  0  0  0  0  0
   66.3880   19.9430   24.8250 C   0  0  0  0  0  0  0  0  0  0  0  0
   65.3880   19.0600   25.2230 C   0  0  0  0  0  0  0  0  0  0  0  0
   64.0590   19.4590   25.1680 C   0  0  0  0  0  0  0  0  0  0  0  0
   63.1100   18.5600   25.5550 O   0  0  0  0  0  0  0  0  0  0  0  0
   63.7140   20.7350   24.7290 C   0  0  0  0  0  0  0  0  0  0  0  0
   65.2310   23.7400   21.7290 C   0  0  0  0  0  0  0  0  0  0  0  0
   66.5700   23.9280   22.1700 C   0  0  0  0  0  0  0  0  0  0  0  0
   67.5770   24.3580   21.3010 C   0  0  0  0  0  0  0  0  0  0  0  0
   68.8870   24.4920   21.6710 O   0  0  0  0  0  0  0  0  0  0  0  0
   69.3090   25.7640   22.1530 C   0  0  0  0  0  0  0  0  0  0  0  0
   67.3927   24.0549   17.3304 H   0  0  0  0  0  0  0  0  0  0  0  0
   66.5609   25.6105   17.6691 H   0  0  0  0  0  0  0  0  0  0  0  0
   68.2246   25.6105   16.9917 H   0  0  0  0  0  0  0  0  0  0  0  0
   65.6528   24.6855   18.5044 H   0  0  0  0  0  0  0  0  0  0  0  0
   61.6911   23.4207   20.3870 H   0  0  0  0  0  0  0  0  0  0  0  0
   64.1290   23.6120   24.5520 H   0  0  0  0  0  0  0  0  0  0  0  0
   66.8447   21.9160   24.0579 H   0  0  0  0  0  0  0  0  0  0  0  0
   67.4422   19.6307   24.8567 H   0  0  0  0  0  0  0  0  0  0  0  0
   65.6490   18.0524   25.5789 H   0  0  0  0  0  0  0  0  0  0  0  0
   62.3460   18.8520   26.0120 H   0  0  0  0  0  0  0  0  0  0  0  0
   62.6556   21.0297   24.6742 H   0  0  0  0  0  0  0  0  0  0  0  0
   66.8198   23.7298   23.2228 H   0  0  0  0  0  0  0  0  0  0  0  0
   69.3071   25.7583   23.2530 H   0  0  0  0  0  0  0  0  0  0  0  0
   70.3254   25.9752   21.7891 H   0  0  0  0  0  0  0  0  0  0  0  0
   68.6204   26.5409   21.7891 H   0  0  0  0  0  0  0  0  0  0  0  0
  1  2  1  0
  2  3  1  0
  3  4  2  0
  4  5  1  0
  5  6  2  0
  6  7  1  0
  7  8  2  0
  8  9  1  0
  9 10  1  0
 10 11  1  0
 11 12  2  0
 12 13  1  0
 13 14  2  0
 14 15  1  0
 15 16  1  0
 15 17  2  0
  9 18  2  0
 18 19  1  0
 19 20  2  0
 20 21  1  0
 21 22  1  0
 20  3  1  0
 18  5  1  0
 17 11  1  0
  1 23  1  0
  1 24  1  0
  1 25  1  0
  4 26  1  0
  7 27  1  0
 10 28  1  0
 12 29  1  0
 13 30  1  0
 14 31  1  0
 16 32  1  0
 17 33  1  0
 19 34  1  0
 22 35  1  0
 22 36  1  0
 22 37  1  0
M  END
>  <meeko>  (3) 
{"is_sidechain": [false], "free_energy": -7.74, "intermolecular_energy": -9.312, "internal_energy": -0.616}

$$$$
native_DTQ_out
     RDKit          3D

 37 39  0  0  0  0  0  0  0  0999 V2000
   61.8030   16.4910   25.8780 C   0  0  0  0  0  0  0  0  0  0  0  0
   62.8430   17.1790   26.5660 O   0  0  0  0  0  0  0  0  0  0  0  0
   63.2120   18.3920   26.0410 C   0  0  0  0  0  0  0  0  0  0  0  0
   64.5430   18.4300   25.6020 C   0  0  0  0  0  0  0  0  0  0  0  0
   65.1080   19.5600   25.0310 C   0  0  0  0  0  0  0  0  0  0  0  0
   66.3940   19.5220   24.6660 N   0  0  0  0  0  0  0  0  0  0  0  0
   66.9080   20.6400   24.1440 C   0  0  0  0  0  0  0  0  0  0  0  0
   66.2540   21.7850   23.9330 N   0  0  0  0  0  0  0  0  0  0  0  0
   64.9530   21.7950   24.2730 C   0  0  0  0  0  0  0  0  0  0  0  0
   64.2920   23.0150   24.0060 N   0  0  0  0  0  0  0  0  0  0  0  0
   64.3240   23.7320   22.7800 C   0  0  0  0  0  0  0  0  0  0  0  0
   65.2580   24.7450   22.5160 C   0  0  0  0  0  0  0  0  0  0  0  0
   65.2180   25.4510   21.3100 C   0  0  0  0  0  0  0  0  0  0  0  0
   64.2350   25.1650   20.3670 C   0  0  0  0  0  0  0  0  0  0  0  0
   63.2890   24.1840   20.6390 C   0  0  0  0  0  0  0  0  0  0  0  0
   62.3360   23.9440   19.6940 O   0  0  0  0  0  0  0  0  0  0  0  0
   63.3190   23.4770   21.8380 C   0  0  0  0  0  0  0  0  0  0  0  0
   64.3090   20.6940   24.8690 C   0  0  0  0  0  0  0  0  0  0  0  0
   62.9580   20.6630   25.3120 C   0  0  0  0  0  0  0  0  0  0  0  0
   62.3940   19.5120   25.8700 C   0  0  0  0  0  0  0  0  0  0  0  0
   61.0830   19.4220   26.2520 O   0  0  0  0  0  0  0  0  0  0  0  0
   60.6680   20.1970   27.3730 C   0  0  0  0  0  0  0  0  0  0  0  0
   61.1174   16.0374   26.6089 H   0  0  0  0  0  0  0  0  0  0  0  0
   61.2486   17.2011   25.2468 H   0  0  0  0  0  0  0  0  0  0  0  0
   62.2397   15.7030   25.2468 H   0  0  0  0  0  0  0  0  0  0  0  0
   65.1630   17.5284   25.7150 H   0  0  0  0  0  0  0  0  0  0  0  0
   67.9708   20.6145   23.8613 H   0  0  0  0  0  0  0  0  0  0  0  0
   63.7580   23.4040   24.7360 H   0  0  0  0  0  0  0  0  0  0  0  0
   66.0279   24.9857   23.2639 H   0  0  0  0  0  0  0  0  0  0  0  0
   65.9641   26.2332   21.1062 H   0  0  0  0  0  0  0  0  0  0  0  0
   64.2071   25.7118   19.4129 H   0  0  0  0  0  0  0  0  0  0  0  0
   61.6240   24.5430   19.5840 H   0  0  0  0  0  0  0  0  0  0  0  0
   62.5519   22.7166   22.0461 H   0  0  0  0  0  0  0  0  0  0  0  0
   62.3408   21.5681   25.2130 H   0  0  0  0  0  0  0  0  0  0  0  0
   60.9464   19.6770   28.3015 H   0  0  0  0  0  0  0  0  0  0  0  0
   61.1603   21.1802   27.3415 H   0  0  0  0  0  0  0  0  0  0  0  0
   59.5768   20.3322   27.3415 H   0  0  0  0  0  0  0  0  0  0  0  0
  1  2  1  0
  2  3  1  0
  3  4  2  0
  4  5  1  0
  5  6  2  0
  6  7  1  0
  7  8  2  0
  8  9  1  0
  9 10  1  0
 10 11  1  0
 11 12  2  0
 12 13  1  0
 13 14  2  0
 14 15  1  0
 15 16  1  0
 15 17  2  0
  9 18  2  0
 18 19  1  0
 19 20  2  0
 20 21  1  0
 21 22  1  0
 20  3  1  0
 18  5  1  0
 17 11  1  0
  1 23  1  0
  1 24  1  0
  1 25  1  0
  4 26  1  0
  7 27  1  0
 10 28  1  0
 12 29  1  0
 13 30  1  0
 14 31  1  0
 16 32  1  0
 17 33  1  0
 19 34  1  0
 22 35  1  0
 22 36  1  0
 22 37  1  0
M  END
>  <meeko>  (4) 
{"is_sidechain": [false], "free_energy": -7.299, "intermolecular_energy": -9.112, "internal_energy": -0.259}

$$$$
native_DTQ_out
     RDKit          3D

 37 39  0  0  0  0  0  0  0  0999 V2000
   67.6280   28.5090   21.4300 C   0  0  0  0  0  0  0  0  0  0  0  0
   68.2160   27.2590   21.0850 O   0  0  0  0  0  0  0  0  0  0  0  0
   67.4880   26.1420   21.4060 C   0  0  0  0  0  0  0  0  0  0  0  0
   66.1710   26.4240   21.7930 C   0  0  0  0  0  0  0  0  0  0  0  0
   65.2690   25.4310   22.1470 C   0  0  0  0  0  0  0  0  0  0  0  0
   64.0390   25.7880   22.5330 N   0  0  0  0  0  0  0  0  0  0  0  0
   63.2090   24.8040   22.8930 C   0  0  0  0  0  0  0  0  0  0  0  0
   63.4840   23.4970   22.8830 N   0  0  0  0  0  0  0  0  0  0  0  0
   64.7130   23.1540   22.4590 C   0  0  0  0  0  0  0  0  0  0  0  0
   64.9520   21.7610   22.4350 N   0  0  0  0  0  0  0  0  0  0  0  0
   65.0300   20.9070   23.5670 C   0  0  0  0  0  0  0  0  0  0  0  0
   66.2270   20.3110   23.9890 C   0  0  0  0  0  0  0  0  0  0  0  0
   66.2410   19.4430   25.0840 C   0  0  0  0  0  0  0  0  0  0  0  0
   65.0570   19.1470   25.7540 C   0  0  0  0  0  0  0  0  0  0  0  0
   63.8640   19.7100   25.3190 C   0  0  0  0  0  0  0  0  0  0  0  0
   62.7260   19.3850   25.9950 O   0  0  0  0  0  0  0  0  0  0  0  0
   63.8390   20.5750   24.2280 C   0  0  0  0  0  0  0  0  0  0  0  0
   65.6890   24.1000   22.0930 C   0  0  0  0  0  0  0  0  0  0  0  0
   67.0240   23.8070   21.7010 C   0  0  0  0  0  0  0  0  0  0  0  0
   67.9190   24.8140   21.3300 C   0  0  0  0  0  0  0  0  0  0  0  0
   69.1910   24.5700   20.8890 O   0  0  0  0  0  0  0  0  0  0  0  0
   69.4530   24.7470   19.5000 C   0  0  0  0  0  0  0  0  0  0  0  0
   67.5835   28.6035   22.5250 H   0  0  0  0  0  0  0  0  0  0  0  0
   68.2358   29.3269   21.0158 H   0  0  0  0  0  0  0  0  0  0  0  0
   66.6104   28.5623   21.0158 H   0  0  0  0  0  0  0  0  0  0  0  0
   65.8397   27.4726   21.8170 H   0  0  0  0  0  0  0  0  0  0  0  0
   62.2040   25.0986   23.2294 H   0  0  0  0  0  0  0  0  0  0  0  0
   65.0740   21.3440   21.5520 H   0  0  0  0  0  0  0  0  0  0  0  0
   67.1629   20.5286   23.4536 H   0  0  0  0  0  0  0  0  0  0  0  0
   67.1881   18.9933   25.4168 H   0  0  0  0  0  0  0  0  0  0  0  0
   65.0662   18.4717   26.6222 H   0  0  0  0  0  0  0  0  0  0  0  0
   62.5680   18.4960   26.2450 H   0  0  0  0  0  0  0  0  0  0  0  0
   62.8836   20.9983   23.8844 H   0  0  0  0  0  0  0  0  0  0  0  0
   67.3612   22.7600   21.6895 H   0  0  0  0  0  0  0  0  0  0  0  0
   70.3584   25.3586   19.3727 H   0  0  0  0  0  0  0  0  0  0  0  0
   69.6043   23.7653   19.0274 H   0  0  0  0  0  0  0  0  0  0  0  0
   68.5987   25.2537   19.0274 H   0  0  0  0  0  0  0  0  0  0  0  0
  1  2  1  0
  2  3  1  0
  3  4  2  0
  4  5  1  0
  5  6  2  0
  6  7  1  0
  7  8  2  0
  8  9  1  0
  9 10  1  0
 10 11  1  0
 11 12  2  0
 12 13  1  0
 13 14  2  0
 14 15  1  0
 15 16  1  0
 15 17  2  0
  9 18  2  0
 18 19  1  0
 19 20  2  0
 20 21  1  0
 21 22  1  0
 20  3  1  0
 18  5  1  0
 17 11  1  0
  1 23  1  0
  1 24  1  0
  1 25  1  0
  4 26  1  0
  7 27  1  0
 10 28  1  0
 12 29  1  0
 13 30  1  0
 14 31  1  0
 16 32  1  0
 17 33  1  0
 19 34  1  0
 22 35  1  0
 22 36  1  0
 22 37  1  0
M  END
>  <meeko>  (5) 
{"is_sidechain": [false], "free_energy": -7.225, "intermolecular_energy": -8.982, "internal_energy": -0.296}

$$$$
native_DTQ_out
     RDKit          3D

 37 39  0  0  0  0  0  0  0  0999 V2000
   67.8580   28.8970   21.7360 C   0  0  0  0  0  0  0  0  0  0  0  0
   68.5570   27.7320   21.3090 O   0  0  0  0  0  0  0  0  0  0  0  0
   67.8560   26.5540   21.3670 C   0  0  0  0  0  0  0  0  0  0  0  0
   66.5110   26.6840   20.9950 C   0  0  0  0  0  0  0  0  0  0  0  0
   65.6360   25.6090   20.9760 C   0  0  0  0  0  0  0  0  0  0  0  0
   64.3600   25.8240   20.6370 N   0  0  0  0  0  0  0  0  0  0  0  0
   63.5410   24.7670   20.6570 C   0  0  0  0  0  0  0  0  0  0  0  0
   63.8810   23.5120   20.9630 N   0  0  0  0  0  0  0  0  0  0  0  0
   65.1750   23.3070   21.2670 C   0  0  0  0  0  0  0  0  0  0  0  0
   65.4980   21.9610   21.5550 N   0  0  0  0  0  0  0  0  0  0  0  0
   65.2300   21.2790   22.7710 C   0  0  0  0  0  0  0  0  0  0  0  0
   64.0520   21.4710   23.5070 C   0  0  0  0  0  0  0  0  0  0  0  0
   63.8570   20.8080   24.7210 C   0  0  0  0  0  0  0  0  0  0  0  0
   64.8430   19.9620   25.2210 C   0  0  0  0  0  0  0  0  0  0  0  0
   66.0250   19.7940   24.5090 C   0  0  0  0  0  0  0  0  0  0  0  0
   66.9710   18.9670   25.0390 O   0  0  0  0  0  0  0  0  0  0  0  0
   66.2300   20.4520   23.2990 C   0  0  0  0  0  0  0  0  0  0  0  0
   66.1240   24.3460   21.3200 C   0  0  0  0  0  0  0  0  0  0  0  0
   67.4870   24.2070   21.6990 C   0  0  0  0  0  0  0  0  0  0  0  0
   68.3650   25.2950   21.6970 C   0  0  0  0  0  0  0  0  0  0  0  0
   69.6970   25.1920   21.9950 O   0  0  0  0  0  0  0  0  0  0  0  0
   70.0810   25.3440   23.3580 C   0  0  0  0  0  0  0  0  0  0  0  0
   67.8380   28.9303   22.8353 H   0  0  0  0  0  0  0  0  0  0  0  0
   68.3682   29.7924   21.3513 H   0  0  0  0  0  0  0  0  0  0  0  0
   66.8279   28.8682   21.3513 H   0  0  0  0  0  0  0  0  0  0  0  0
   66.1354   27.6770   20.7071 H   0  0  0  0  0  0  0  0  0  0  0  0
   62.4877   24.9482   20.3968 H   0  0  0  0  0  0  0  0  0  0  0  0
   65.9500   21.4490   20.8460 H   0  0  0  0  0  0  0  0  0  0  0  0
   63.2749   22.1494   23.1252 H   0  0  0  0  0  0  0  0  0  0  0  0
   62.9227   20.9547   25.2828 H   0  0  0  0  0  0  0  0  0  0  0  0
   64.6880   19.4308   26.1717 H   0  0  0  0  0  0  0  0  0  0  0  0
   66.7490   18.0850   25.2650 H   0  0  0  0  0  0  0  0  0  0  0  0
   67.1784   20.3223   22.7570 H   0  0  0  0  0  0  0  0  0  0  0  0
   67.8606   23.2177   22.0017 H   0  0  0  0  0  0  0  0  0  0  0  0
   69.2570   25.0178   24.0096 H   0  0  0  0  0  0  0  0  0  0  0  0
   70.9719   24.7307   23.5585 H   0  0  0  0  0  0  0  0  0  0  0  0
   70.3107   26.4009   23.5585 H   0  0  0  0  0  0  0  0  0  0  0  0
  1  2  1  0
  2  3  1  0
  3  4  2  0
  4  5  1  0
  5  6  2  0
  6  7  1  0
  7  8  2  0
  8  9  1  0
  9 10  1  0
 10 11  1  0
 11 12  2  0
 12 13  1  0
 13 14  2  0
 14 15  1  0
 15 16  1  0
 15 17  2  0
  9 18  2  0
 18 19  1  0
 19 20  2  0
 20 21  1  0
 21 22  1  0
 20  3  1  0
 18  5  1  0
 17 11  1  0
  1 23  1  0
  1 24  1  0
  1 25  1  0
  4 26  1  0
  7 27  1  0
 10 28  1  0
 12 29  1  0
 13 30  1  0
 14 31  1  0
 16 32  1  0
 17 33  1  0
 19 34  1  0
 22 35  1  0
 22 36  1  0
 22 37  1  0
M  END
>  <meeko>  (6) 
{"is_sidechain": [false], "free_energy": -7.103, "intermolecular_energy": -8.61, "internal_energy": -0.514}

$$$$
native_DTQ_out
     RDKit          3D

 37 39  0  0  0  0  0  0  0  0999 V2000
   64.4690   28.0250   18.9820 C   0  0  0  0  0  0  0  0  0  0  0  0
   64.2060   27.5600   20.3020 O   0  0  0  0  0  0  0  0  0  0  0  0
   64.8430   26.4030   20.6710 C   0  0  0  0  0  0  0  0  0  0  0  0
   66.1320   26.6110   21.1820 C   0  0  0  0  0  0  0  0  0  0  0  0
   66.9360   25.5710   21.6210 C   0  0  0  0  0  0  0  0  0  0  0  0
   68.1660   25.8530   22.0670 N   0  0  0  0  0  0  0  0  0  0  0  0
   68.9200   24.8200   22.4560 C   0  0  0  0  0  0  0  0  0  0  0  0
   68.5560   23.5350   22.4610 N   0  0  0  0  0  0  0  0  0  0  0  0
   67.3050   23.2730   22.0430 C   0  0  0  0  0  0  0  0  0  0  0  0
   66.9500   21.9050   22.0930 N   0  0  0  0  0  0  0  0  0  0  0  0
   66.3160   21.2460   23.1790 C   0  0  0  0  0  0  0  0  0  0  0  0
   67.0260   20.5210   24.1480 C   0  0  0  0  0  0  0  0  0  0  0  0
   66.3490   19.8530   25.1720 C   0  0  0  0  0  0  0  0  0  0  0  0
   64.9590   19.8870   25.2270 C   0  0  0  0  0  0  0  0  0  0  0  0
   64.2510   20.5770   24.2510 C   0  0  0  0  0  0  0  0  0  0  0  0
   62.8900   20.5750   24.3340 O   0  0  0  0  0  0  0  0  0  0  0  0
   64.9160   21.2450   23.2250 C   0  0  0  0  0  0  0  0  0  0  0  0
   66.4300   24.2700   21.5700 C   0  0  0  0  0  0  0  0  0  0  0  0
   65.1240   24.0510   21.0530 C   0  0  0  0  0  0  0  0  0  0  0  0
   64.3140   25.1090   20.6300 C   0  0  0  0  0  0  0  0  0  0  0  0
   63.0310   24.9470   20.1840 O   0  0  0  0  0  0  0  0  0  0  0  0
   62.4820   23.6330   20.2180 C   0  0  0  0  0  0  0  0  0  0  0  0
   65.0100   28.9815   19.0312 H   0  0  0  0  0  0  0  0  0  0  0  0
   65.0819   27.2842   18.4476 H   0  0  0  0  0  0  0  0  0  0  0  0
   63.5183   28.1685   18.4476 H   0  0  0  0  0  0  0  0  0  0  0  0
   66.5199   27.6389   21.2365 H   0  0  0  0  0  0  0  0  0  0  0  0
   69.9373   25.0503   22.8053 H   0  0  0  0  0  0  0  0  0  0  0  0
   67.1600   21.3600   21.3010 H   0  0  0  0  0  0  0  0  0  0  0  0
   68.1242   20.4781   24.1013 H   0  0  0  0  0  0  0  0  0  0  0  0
   66.9156   19.2997   25.9354 H   0  0  0  0  0  0  0  0  0  0  0  0
   64.4243   19.3709   26.0380 H   0  0  0  0  0  0  0  0  0  0  0  0
   62.4710   20.7360   25.1560 H   0  0  0  0  0  0  0  0  0  0  0  0
   64.3407   21.7724   22.4499 H   0  0  0  0  0  0  0  0  0  0  0  0
   64.7408   23.0222   20.9840 H   0  0  0  0  0  0  0  0  0  0  0  0
   62.3502   23.3176   21.2635 H   0  0  0  0  0  0  0  0  0  0  0  0
   61.5072   23.6296   19.7084 H   0  0  0  0  0  0  0  0  0  0  0  0
   63.1646   22.9371   19.7084 H   0  0  0  0  0  0  0  0  0  0  0  0
  1  2  1  0
  2  3  1  0
  3  4  2  0
  4  5  1  0
  5  6  2  0
  6  7  1  0
  7  8  2  0
  8  9  1  0
  9 10  1  0
 10 11  1  0
 11 12  2  0
 12 13  1  0
 13 14  2  0
 14 15  1  0
 15 16  1  0
 15 17  2  0
  9 18  2  0
 18 19  1  0
 19 20  2  0
 20 21  1  0
 21 22  1  0
 20  3  1  0
 18  5  1  0
 17 11  1  0
  1 23  1  0
  1 24  1  0
  1 25  1  0
  4 26  1  0
  7 27  1  0
 10 28  1  0
 12 29  1  0
 13 30  1  0
 14 31  1  0
 16 32  1  0
 17 33  1  0
 19 34  1  0
 22 35  1  0
 22 36  1  0
 22 37  1  0
M  END
>  <meeko>  (7) 
{"is_sidechain": [false], "free_energy": -6.891, "intermolecular_energy": -8.226, "internal_energy": -0.63}

$$$$
native_DTQ_out
     RDKit          3D

 37 39  0  0  0  0  0  0  0  0999 V2000
   66.7420   29.7990   20.4090 C   0  0  0  0  0  0  0  0  0  0  0  0
   65.8380   28.8680   19.8220 O   0  0  0  0  0  0  0  0  0  0  0  0
   66.0190   27.5530   20.1680 C   0  0  0  0  0  0  0  0  0  0  0  0
   67.1660   27.3310   20.9440 C   0  0  0  0  0  0  0  0  0  0  0  0
   67.5210   26.0720   21.4050 C   0  0  0  0  0  0  0  0  0  0  0  0
   68.6480   25.9420   22.1140 N   0  0  0  0  0  0  0  0  0  0  0  0
   68.9700   24.7090   22.5170 C   0  0  0  0  0  0  0  0  0  0  0  0
   68.2620   23.5970   22.2980 N   0  0  0  0  0  0  0  0  0  0  0  0
   67.1150   23.7520   21.6140 C   0  0  0  0  0  0  0  0  0  0  0  0
   66.3820   22.5570   21.4300 N   0  0  0  0  0  0  0  0  0  0  0  0
   65.7720   21.7850   22.4540 C   0  0  0  0  0  0  0  0  0  0  0  0
   64.4820   22.0470   22.9380 C   0  0  0  0  0  0  0  0  0  0  0  0
   63.9460   21.2840   23.9790 C   0  0  0  0  0  0  0  0  0  0  0  0
   64.6990   20.2660   24.5580 C   0  0  0  0  0  0  0  0  0  0  0  0
   65.9890   20.0250   24.1020 C   0  0  0  0  0  0  0  0  0  0  0  0
   66.6970   19.0270   24.7040 O   0  0  0  0  0  0  0  0  0  0  0  0
   66.5340   20.7800   23.0670 C   0  0  0  0  0  0  0  0  0  0  0  0
   66.6890   24.9920   21.1010 C   0  0  0  0  0  0  0  0  0  0  0  0
   65.5240   25.2100   20.3160 C   0  0  0  0  0  0  0  0  0  0  0  0
   65.1660   26.4860   19.8700 C   0  0  0  0  0  0  0  0  0  0  0  0
   64.0230   26.7470   19.1650 O   0  0  0  0  0  0  0  0  0  0  0  0
   62.8710   27.1450   19.9010 C   0  0  0  0  0  0  0  0  0  0  0  0
   66.6770   29.7320   21.5050 H   0  0  0  0  0  0  0  0  0  0  0  0
   67.7680   29.5663   20.0877 H   0  0  0  0  0  0  0  0  0  0  0  0
   66.4792   30.8177   20.0877 H   0  0  0  0  0  0  0  0  0  0  0  0
   67.8082   28.1876   21.1965 H   0  0  0  0  0  0  0  0  0  0  0  0
   69.9069   24.5991   23.0828 H   0  0  0  0  0  0  0  0  0  0  0  0
   66.2850   22.2300   20.5070 H   0  0  0  0  0  0  0  0  0  0  0  0
   63.8874   22.8594   22.4948 H   0  0  0  0  0  0  0  0  0  0  0  0
   62.9277   21.4880   24.3415 H   0  0  0  0  0  0  0  0  0  0  0  0
   64.2757   19.6571   25.3704 H   0  0  0  0  0  0  0  0  0  0  0  0
   67.2000   18.4310   24.1850 H   0  0  0  0  0  0  0  0  0  0  0  0
   67.5633   20.5880   22.7298 H   0  0  0  0  0  0  0  0  0  0  0  0
   64.8875   24.3524   20.0525 H   0  0  0  0  0  0  0  0  0  0  0  0
   63.0810   27.0724   20.9783 H   0  0  0  0  0  0  0  0  0  0  0  0
   62.6143   28.1839   19.6466 H   0  0  0  0  0  0  0  0  0  0  0  0
   62.0277   26.4861   19.6466 H   0  0  0  0  0  0  0  0  0  0  0  0
  1  2  1  0
  2  3  1  0
  3  4  2  0
  4  5  1  0
  5  6  2  0
  6  7  1  0
  7  8  2  0
  8  9  1  0
  9 10  1  0
 10 11  1  0
 11 12  2  0
 12 13  1  0
 13 14  2  0
 14 15  1  0
 15 16  1  0
 15 17  2  0
  9 18  2  0
 18 19  1  0
 19 20  2  0
 20 21  1  0
 21 22  1  0
 20  3  1  0
 18  5  1  0
 17 11  1  0
  1 23  1  0
  1 24  1  0
  1 25  1  0
  4 26  1  0
  7 27  1  0
 10 28  1  0
 12 29  1  0
 13 30  1  0
 14 31  1  0
 16 32  1  0
 17 33  1  0
 19 34  1  0
 22 35  1  0
 22 36  1  0
 22 37  1  0
M  END
>  <meeko>  (8) 
{"is_sidechain": [false], "free_energy": -6.786, "intermolecular_energy": -8.207, "internal_energy": -0.517}

$$$$
native_DTQ_out
     RDKit          3D

 37 39  0  0  0  0  0  0  0  0999 V2000
   62.7700   19.8140   25.3000 C   0  0  0  0  0  0  0  0  0  0  0  0
   64.1250   20.2360   25.4190 O   0  0  0  0  0  0  0  0  0  0  0  0
   64.6240   20.9620   24.3690 C   0  0  0  0  0  0  0  0  0  0  0  0
   63.6440   21.6760   23.6650 C   0  0  0  0  0  0  0  0  0  0  0  0
   63.9450   22.4800   22.5760 C   0  0  0  0  0  0  0  0  0  0  0  0
   62.9460   23.1030   21.9410 N   0  0  0  0  0  0  0  0  0  0  0  0
   63.2740   23.8470   20.8800 C   0  0  0  0  0  0  0  0  0  0  0  0
   64.5070   24.0440   20.4060 N   0  0  0  0  0  0  0  0  0  0  0  0
   65.5030   23.4390   21.0770 C   0  0  0  0  0  0  0  0  0  0  0  0
   66.7930   23.6980   20.5610 N   0  0  0  0  0  0  0  0  0  0  0  0
   67.6470   24.7670   20.9440 C   0  0  0  0  0  0  0  0  0  0  0  0
   67.6460   26.0100   20.2950 C   0  0  0  0  0  0  0  0  0  0  0  0
   68.5380   27.0140   20.6830 C   0  0  0  0  0  0  0  0  0  0  0  0
   69.4510   26.7780   21.7070 C   0  0  0  0  0  0  0  0  0  0  0  0
   69.4760   25.5360   22.3300 C   0  0  0  0  0  0  0  0  0  0  0  0
   70.3930   25.3410   23.3200 O   0  0  0  0  0  0  0  0  0  0  0  0
   68.5920   24.5290   21.9500 C   0  0  0  0  0  0  0  0  0  0  0  0
   65.2800   22.5970   22.1840 C   0  0  0  0  0  0  0  0  0  0  0  0
   66.2800   21.8770   22.8930 C   0  0  0  0  0  0  0  0  0  0  0  0
   65.9680   21.0830   24.0000 C   0  0  0  0  0  0  0  0  0  0  0  0
   66.9060   20.4240   24.7460 O   0  0  0  0  0  0  0  0  0  0  0  0
   66.6440   19.0650   25.0840 C   0  0  0  0  0  0  0  0  0  0  0  0
   62.3384   19.6796   26.3028 H   0  0  0  0  0  0  0  0  0  0  0  0
   62.1954   20.5758   24.7526 H   0  0  0  0  0  0  0  0  0  0  0  0
   62.7296   18.8607   24.7526 H   0  0  0  0  0  0  0  0  0  0  0  0
   62.5959   21.5953   23.9890 H   0  0  0  0  0  0  0  0  0  0  0  0
   62.4503   24.3441   20.3467 H   0  0  0  0  0  0  0  0  0  0  0  0
   67.1310   23.0810   19.8740 H   0  0  0  0  0  0  0  0  0  0  0  0
   66.9378   26.1965   19.4742 H   0  0  0  0  0  0  0  0  0  0  0  0
   68.5184   27.9914   20.1787 H   0  0  0  0  0  0  0  0  0  0  0  0
   70.1478   27.5691   22.0209 H   0  0  0  0  0  0  0  0  0  0  0  0
   71.2830   25.1450   23.1010 H   0  0  0  0  0  0  0  0  0  0  0  0
   68.6361   23.5455   22.4406 H   0  0  0  0  0  0  0  0  0  0  0  0
   67.3266   21.9467   22.5617 H   0  0  0  0  0  0  0  0  0  0  0  0
   66.6231   18.9568   26.1785 H   0  0  0  0  0  0  0  0  0  0  0  0
   65.6714   18.7645   24.6672 H   0  0  0  0  0  0  0  0  0  0  0  0
   67.4352   18.4244   24.6672 H   0  0  0  0  0  0  0  0  0  0  0  0
  1  2  1  0
  2  3  1  0
  3  4  2  0
  4  5  1  0
  5  6  2  0
  6  7  1  0
  7  8  2  0
  8  9  1  0
  9 10  1  0
 10 11  1  0
 11 12  2  0
 12 13  1  0
 13 14  2  0
 14 15  1  0
 15 16  1  0
 15 17  2  0
  9 18  2  0
 18 19  1  0
 19 20  2  0
 20 21  1  0
 21 22  1  0
 20  3  1  0
 18  5  1  0
 17 11  1  0
  1 23  1  0
  1 24  1  0
  1 25  1  0
  4 26  1  0
  7 27  1  0
 10 28  1  0
 12 29  1  0
 13 30  1  0
 14 31  1  0
 16 32  1  0
 17 33  1  0
 19 34  1  0
 22 35  1  0
 22 36  1  0
 22 37  1  0
M  END
>  <meeko>  (9) 
{"is_sidechain": [false], "free_energy": -6.666, "intermolecular_energy": -8.437, "internal_energy": -0.135}

$$$$
