9IV_ttbk2_out
     RDKit          3D

 37 40  0  0  0  0  0  0  0  0999 V2000
   35.2980   34.0140  -18.1870 Cl  0  0  0  0  0  0  0  0  0  0  0  0
   34.1350   32.9880  -17.4310 C   0  0  0  0  0  0  0  0  0  0  0  0
   32.8130   33.0310  -17.8800 C   0  0  0  0  0  0  0  0  0  0  0  0
   31.8480   32.2120  -17.2900 C   0  0  0  0  0  0  0  0  0  0  0  0
   32.2030   31.3460  -16.2550 C   0  0  0  0  0  0  0  0  0  0  0  0
   33.5230   31.3000  -15.8040 C   0  0  0  0  0  0  0  0  0  0  0  0
   34.4890   32.1360  -16.3800 C   0  0  0  0  0  0  0  0  0  0  0  0
   35.8040   32.0750  -15.9740 O   0  0  0  0  0  0  0  0  0  0  0  0
   36.4130   30.8420  -16.0070 C   0  0  0  0  0  0  0  0  0  0  0  0
   36.5650   30.0980  -17.1780 C   0  0  0  0  0  0  0  0  0  0  0  0
   37.1660   28.8380  -17.1240 C   0  0  0  0  0  0  0  0  0  0  0  0
   37.6210   28.3040  -15.9100 C   0  0  0  0  0  0  0  0  0  0  0  0
   38.1920   27.0150  -15.9200 N   0  0  0  0  0  0  0  0  0  0  0  0
   39.5400   26.6650  -15.7500 C   0  0  0  0  0  0  0  0  0  0  0  0
   40.2070   26.2540  -16.8590 N   0  0  0  0  0  0  0  0  0  0  0  0
   41.5070   25.9170  -16.7440 C   0  0  0  0  0  0  0  0  0  0  0  0
   42.2770   25.9430  -15.6440 N   0  0  0  0  0  0  0  0  0  0  0  0
   41.5900   26.3840  -14.5810 C   0  0  0  0  0  0  0  0  0  0  0  0
   42.1170   26.5420  -13.3290 N   0  0  0  0  0  0  0  0  0  0  0  0
   41.1580   27.0330  -12.4810 C   0  0  0  0  0  0  0  0  0  0  0  0
   39.9960   27.1870  -13.2080 C   0  0  0  0  0  0  0  0  0  0  0  0
   40.2570   26.7620  -14.5440 C   0  0  0  0  0  0  0  0  0  0  0  0
   37.4200   29.0450  -14.7390 C   0  0  0  0  0  0  0  0  0  0  0  0
   36.8180   30.3060  -14.7850 C   0  0  0  0  0  0  0  0  0  0  0  0
   32.5320   33.7101  -18.6985 H   0  0  0  0  0  0  0  0  0  0  0  0
   30.8064   32.2496  -17.6417 H   0  0  0  0  0  0  0  0  0  0  0  0
   31.4419   30.6991  -15.7942 H   0  0  0  0  0  0  0  0  0  0  0  0
   33.8049   30.6079  -14.9968 H   0  0  0  0  0  0  0  0  0  0  0  0
   36.2133   30.5018  -18.1389 H   0  0  0  0  0  0  0  0  0  0  0  0
   37.2842   28.2551  -18.0493 H   0  0  0  0  0  0  0  0  0  0  0  0
   37.5670   26.2680  -16.0650 H   0  0  0  0  0  0  0  0  0  0  0  0
   41.9992   25.5780  -17.6675 H   0  0  0  0  0  0  0  0  0  0  0  0
   43.0450   26.3350  -13.0740 H   0  0  0  0  0  0  0  0  0  0  0  0
   41.2913   27.2627  -11.4135 H   0  0  0  0  0  0  0  0  0  0  0  0
   39.0383   27.5696  -12.8253 H   0  0  0  0  0  0  0  0  0  0  0  0
   37.7395   28.6301  -13.7716 H   0  0  0  0  0  0  0  0  0  0  0  0
   36.6637   30.8757  -13.8567 H   0  0  0  0  0  0  0  0  0  0  0  0
  1  2  1  0
  2  3  2  0
  3  4  1  0
  4  5  2  0
  5  6  1  0
  6  7  2  0
  7  8  1  0
  8  9  1  0
  9 10  2  0
 10 11  1  0
 11 12  2  0
 12 13  1  0
 13 14  1  0
 14 15  2  0
 15 16  1  0
 16 17  2  0
 17 18  1  0
 18 19  1  0
 19 20  1  0
 20 21  2  0
 21 22  1  0
 12 23  1  0
 23 24  2  0
  7  2  1  0
 24  9  1  0
 22 14  1  0
 22 18  2  0
  3 25  1  0
  4 26  1  0
  5 27  1  0
  6 28  1  0
 10 29  1  0
 11 30  1  0
 13 31  1  0
 16 32  1  0
 19 33  1  0
 20 34  1  0
 21 35  1  0
 23 36  1  0
 24 37  1  0
M  END
>  <meeko>  (1) 
{"is_sidechain": [false], "free_energy": -10.54, "intermolecular_energy": -13.004, "internal_energy": -0.805}

$$$$
9IV_ttbk2_out
     RDKit          3D

 37 40  0  0  0  0  0  0  0  0999 V2000
   41.7150   25.7000  -16.5370 Cl  0  0  0  0  0  0  0  0  0  0  0  0
   41.8670   26.1870  -14.8890 C   0  0  0  0  0  0  0  0  0  0  0  0
   43.1470   26.3880  -14.3660 C   0  0  0  0  0  0  0  0  0  0  0  0
   43.3040   26.7840  -13.0360 C   0  0  0  0  0  0  0  0  0  0  0  0
   42.1840   26.9850  -12.2290 C   0  0  0  0  0  0  0  0  0  0  0  0
   40.9030   26.7870  -12.7480 C   0  0  0  0  0  0  0  0  0  0  0  0
   40.7440   26.3690  -14.0750 C   0  0  0  0  0  0  0  0  0  0  0  0
   39.4860   26.2070  -14.6150 O   0  0  0  0  0  0  0  0  0  0  0  0
   38.8450   27.3400  -15.0580 C   0  0  0  0  0  0  0  0  0  0  0  0
   38.6930   28.4850  -14.2750 C   0  0  0  0  0  0  0  0  0  0  0  0
   38.0010   29.5860  -14.7860 C   0  0  0  0  0  0  0  0  0  0  0  0
   37.4510   29.5600  -16.0760 C   0  0  0  0  0  0  0  0  0  0  0  0
   36.7380   30.6940  -16.5200 N   0  0  0  0  0  0  0  0  0  0  0  0
   35.3550   30.9240  -16.4580 C   0  0  0  0  0  0  0  0  0  0  0  0
   34.7260   31.1730  -17.6350 N   0  0  0  0  0  0  0  0  0  0  0  0
   33.3960   31.3900  -17.6240 C   0  0  0  0  0  0  0  0  0  0  0  0
   32.5620   31.3820  -16.5720 N   0  0  0  0  0  0  0  0  0  0  0  0
   33.2170   31.1010  -15.4350 C   0  0  0  0  0  0  0  0  0  0  0  0
   32.6270   30.9990  -14.2060 N   0  0  0  0  0  0  0  0  0  0  0  0
   33.5710   30.6770  -13.2640 C   0  0  0  0  0  0  0  0  0  0  0  0
   34.7860   30.5760  -13.9090 C   0  0  0  0  0  0  0  0  0  0  0  0
   34.5740   30.8590  -15.2900 C   0  0  0  0  0  0  0  0  0  0  0  0
   37.5750   28.3870  -16.8300 C   0  0  0  0  0  0  0  0  0  0  0  0
   38.2660   27.2820  -16.3250 C   0  0  0  0  0  0  0  0  0  0  0  0
   44.0312   26.2343  -15.0020 H   0  0  0  0  0  0  0  0  0  0  0  0
   44.3123   26.9377  -12.6241 H   0  0  0  0  0  0  0  0  0  0  0  0
   42.3102   27.2998  -11.1826 H   0  0  0  0  0  0  0  0  0  0  0  0
   40.0198   26.9591  -12.1153 H   0  0  0  0  0  0  0  0  0  0  0  0
   39.1160   28.5206  -13.2602 H   0  0  0  0  0  0  0  0  0  0  0  0
   37.8857   30.4877  -14.1666 H   0  0  0  0  0  0  0  0  0  0  0  0
   37.2780   31.4110  -16.9230 H   0  0  0  0  0  0  0  0  0  0  0  0
   32.9355   31.6003  -18.6006 H   0  0  0  0  0  0  0  0  0  0  0  0
   31.6690   31.1360  -14.0230 H   0  0  0  0  0  0  0  0  0  0  0  0
   33.3915   30.5266  -12.1892 H   0  0  0  0  0  0  0  0  0  0  0  0
   35.7483   30.3220  -13.4406 H   0  0  0  0  0  0  0  0  0  0  0  0
   37.1233   28.3343  -17.8316 H   0  0  0  0  0  0  0  0  0  0  0  0
   38.3531   26.3659  -16.9276 H   0  0  0  0  0  0  0  0  0  0  0  0
  1  2  1  0
  2  3  2  0
  3  4  1  0
  4  5  2  0
  5  6  1  0
  6  7  2  0
  7  8  1  0
  8  9  1  0
  9 10  2  0
 10 11  1  0
 11 12  2  0
 12 13  1  0
 13 14  1  0
 14 15  2  0
 15 16  1  0
 16 17  2  0
 17 18  1  0
 18 19  1  0
 19 20  1  0
 20 21  2  0
 21 22  1  0
 12 23  1  0
 23 24  2  0
  7  2  1  0
 24  9  1  0
 22 14  1  0
 22 18  2  0
  3 25  1  0
  4 26  1  0
  5 27  1  0
  6 28  1  0
 10 29  1  0
 11 30  1  0
 13 31  1  0
 16 32  1  0
 19 33  1  0
 20 34  1  0
 21 35  1  0
 23 36  1  0
 24 37  1  0
M  END
>  <meeko>  (2) 
{"is_sidechain": [false], "free_energy": -10.223, "intermolecular_energy": -12.819, "internal_energy": -0.599}

$$$$
9IV_ttbk2_out
     RDKit          3D

 37 40  0  0  0  0  0  0  0  0999 V2000
   40.5740   27.2270  -11.4350 Cl  0  0  0  0  0  0  0  0  0  0  0  0
   41.5650   26.7850  -12.7760 C   0  0  0  0  0  0  0  0  0  0  0  0
   42.9510   26.9040  -12.6510 C   0  0  0  0  0  0  0  0  0  0  0  0
   43.7820   26.5540  -13.7170 C   0  0  0  0  0  0  0  0  0  0  0  0
   43.2300   26.0780  -14.9070 C   0  0  0  0  0  0  0  0  0  0  0  0
   41.8450   25.9560  -15.0350 C   0  0  0  0  0  0  0  0  0  0  0  0
   41.0090   26.3270  -13.9750 C   0  0  0  0  0  0  0  0  0  0  0  0
   39.6430   26.1770  -14.0700 O   0  0  0  0  0  0  0  0  0  0  0  0
   38.9500   27.1620  -14.7350 C   0  0  0  0  0  0  0  0  0  0  0  0
   38.3720   26.9720  -15.9910 C   0  0  0  0  0  0  0  0  0  0  0  0
   37.7110   28.0320  -16.6160 C   0  0  0  0  0  0  0  0  0  0  0  0
   37.6170   29.2890  -16.0030 C   0  0  0  0  0  0  0  0  0  0  0  0
   36.9620   30.3250  -16.7010 N   0  0  0  0  0  0  0  0  0  0  0  0
   35.6080   30.6900  -16.6360 C   0  0  0  0  0  0  0  0  0  0  0  0
   34.9930   30.9610  -17.8150 N   0  0  0  0  0  0  0  0  0  0  0  0
   33.6900   31.3060  -17.8000 C   0  0  0  0  0  0  0  0  0  0  0  0
   32.8710   31.4130  -16.7420 N   0  0  0  0  0  0  0  0  0  0  0  0
   33.5090   31.1060  -15.6020 C   0  0  0  0  0  0  0  0  0  0  0  0
   32.9250   31.1010  -14.3650 N   0  0  0  0  0  0  0  0  0  0  0  0
   33.8440   30.7190  -13.4210 C   0  0  0  0  0  0  0  0  0  0  0  0
   35.0370   30.4800  -14.0720 C   0  0  0  0  0  0  0  0  0  0  0  0
   34.8380   30.7390  -15.4590 C   0  0  0  0  0  0  0  0  0  0  0  0
   38.2410   29.4740  -14.7630 C   0  0  0  0  0  0  0  0  0  0  0  0
   38.9040   28.4180  -14.1320 C   0  0  0  0  0  0  0  0  0  0  0  0
   43.3883   27.2738  -11.7118 H   0  0  0  0  0  0  0  0  0  0  0  0
   44.8731   26.6536  -13.6187 H   0  0  0  0  0  0  0  0  0  0  0  0
   43.8863   25.7988  -15.7445 H   0  0  0  0  0  0  0  0  0  0  0  0
   41.4108   25.5685  -15.9684 H   0  0  0  0  0  0  0  0  0  0  0  0
   38.4367   25.9920  -16.4865 H   0  0  0  0  0  0  0  0  0  0  0  0
   37.2566   27.8777  -17.6058 H   0  0  0  0  0  0  0  0  0  0  0  0
   37.5240   30.8580  -17.3090 H   0  0  0  0  0  0  0  0  0  0  0  0
   33.2408   31.5281  -18.7793 H   0  0  0  0  0  0  0  0  0  0  0  0
   31.9880   31.3360  -14.1790 H   0  0  0  0  0  0  0  0  0  0  0  0
   33.6627   30.6209  -12.3405 H   0  0  0  0  0  0  0  0  0  0  0  0
   35.9753   30.1483  -13.6033 H   0  0  0  0  0  0  0  0  0  0  0  0
   38.2089   30.4619  -14.2802 H   0  0  0  0  0  0  0  0  0  0  0  0
   39.3902   28.5781  -13.1583 H   0  0  0  0  0  0  0  0  0  0  0  0
  1  2  1  0
  2  3  2  0
  3  4  1  0
  4  5  2  0
  5  6  1  0
  6  7  2  0
  7  8  1  0
  8  9  1  0
  9 10  2  0
 10 11  1  0
 11 12  2  0
 12 13  1  0
 13 14  1  0
 14 15  2  0
 15 16  1  0
 16 17  2  0
 17 18  1  0
 18 19  1  0
 19 20  1  0
 20 21  2  0
 21 22  1  0
 12 23  1  0
 23 24  2  0
  7  2  1  0
 24  9  1  0
 22 14  1  0
 22 18  2  0
  3 25  1  0
  4 26  1  0
  5 27  1  0
  6 28  1  0
 10 29  1  0
 11 30  1  0
 13 31  1  0
 16 32  1  0
 19 33  1  0
 20 34  1  0
 21 35  1  0
 23 36  1  0
 24 37  1  0
M  END
>  <meeko>  (3) 
{"is_sidechain": [false], "free_energy": -9.93, "intermolecular_energy": -12.439, "internal_energy": -0.617}

$$$$
9IV_ttbk2_out
     RDKit          3D

 37 40  0  0  0  0  0  0  0  0999 V2000
   42.0490   25.6440  -16.4790 Cl  0  0  0  0  0  0  0  0  0  0  0  0
   42.2710   26.1440  -14.8430 C   0  0  0  0  0  0  0  0  0  0  0  0
   43.5690   26.3910  -14.3900 C   0  0  0  0  0  0  0  0  0  0  0  0
   43.7830   26.7980  -13.0710 C   0  0  0  0  0  0  0  0  0  0  0  0
   42.7010   26.9640  -12.2060 C   0  0  0  0  0  0  0  0  0  0  0  0
   41.4020   26.7180  -12.6550 C   0  0  0  0  0  0  0  0  0  0  0  0
   41.1870   26.2890  -13.9710 C   0  0  0  0  0  0  0  0  0  0  0  0
   39.9090   26.0800  -14.4420 O   0  0  0  0  0  0  0  0  0  0  0  0
   39.1500   27.1960  -14.7090 C   0  0  0  0  0  0  0  0  0  0  0  0
   39.0770   28.2920  -13.8470 C   0  0  0  0  0  0  0  0  0  0  0  0
   38.2590   29.3760  -14.1740 C   0  0  0  0  0  0  0  0  0  0  0  0
   37.5050   29.3830  -15.3560 C   0  0  0  0  0  0  0  0  0  0  0  0
   36.6760   30.4950  -15.6120 N   0  0  0  0  0  0  0  0  0  0  0  0
   35.3380   30.6830  -15.2290 C   0  0  0  0  0  0  0  0  0  0  0  0
   35.0530   30.5150  -13.9120 N   0  0  0  0  0  0  0  0  0  0  0  0
   33.7830   30.6960  -13.4980 C   0  0  0  0  0  0  0  0  0  0  0  0
   32.7130   31.0460  -14.2290 N   0  0  0  0  0  0  0  0  0  0  0  0
   33.0440   31.2330  -15.5150 C   0  0  0  0  0  0  0  0  0  0  0  0
   32.1690   31.6200  -16.4930 N   0  0  0  0  0  0  0  0  0  0  0  0
   32.8330   31.7440  -17.6870 C   0  0  0  0  0  0  0  0  0  0  0  0
   34.1560   31.4250  -17.4640 C   0  0  0  0  0  0  0  0  0  0  0  0
   34.2990   31.0840  -16.0870 C   0  0  0  0  0  0  0  0  0  0  0  0
   37.5560   28.2570  -16.1860 C   0  0  0  0  0  0  0  0  0  0  0  0
   38.3730   27.1690  -15.8650 C   0  0  0  0  0  0  0  0  0  0  0  0
   44.4228   26.2650  -15.0720 H   0  0  0  0  0  0  0  0  0  0  0  0
   44.8059   26.9879  -12.7138 H   0  0  0  0  0  0  0  0  0  0  0  0
   42.8715   27.2891  -11.1691 H   0  0  0  0  0  0  0  0  0  0  0  0
   40.5484   26.8609  -11.9761 H   0  0  0  0  0  0  0  0  0  0  0  0
   39.6609   28.3017  -12.9148 H   0  0  0  0  0  0  0  0  0  0  0  0
   38.2055   30.2382  -13.4930 H   0  0  0  0  0  0  0  0  0  0  0  0
   37.0850   31.2300  -16.1230 H   0  0  0  0  0  0  0  0  0  0  0  0
   33.6003   30.5367  -12.4250 H   0  0  0  0  0  0  0  0  0  0  0  0
   31.2080   31.7850  -16.3600 H   0  0  0  0  0  0  0  0  0  0  0  0
   32.3903   32.0437  -18.6483 H   0  0  0  0  0  0  0  0  0  0  0  0
   34.9591   31.4323  -18.2157 H   0  0  0  0  0  0  0  0  0  0  0  0
   36.9463   28.2279  -17.1011 H   0  0  0  0  0  0  0  0  0  0  0  0
   38.4024   26.2903  -16.5261 H   0  0  0  0  0  0  0  0  0  0  0  0
  1  2  1  0
  2  3  2  0
  3  4  1  0
  4  5  2  0
  5  6  1  0
  6  7  2  0
  7  8  1  0
  8  9  1  0
  9 10  2  0
 10 11  1  0
 11 12  2  0
 12 13  1  0
 13 14  1  0
 14 15  2  0
 15 16  1  0
 16 17  2  0
 17 18  1  0
 18 19  1  0
 19 20  1  0
 20 21  2  0
 21 22  1  0
 12 23  1  0
 23 24  2  0
  7  2  1  0
 24  9  1  0
 22 14  1  0
 22 18  2  0
  3 25  1  0
  4 26  1  0
  5 27  1  0
  6 28  1  0
 10 29  1  0
 11 30  1  0
 13 31  1  0
 16 32  1  0
 19 33  1  0
 20 34  1  0
 21 35  1  0
 23 36  1  0
 24 37  1  0
M  END
>  <meeko>  (4) 
{"is_sidechain": [false], "free_energy": -9.682, "intermolecular_energy": -12.424, "internal_energy": -0.326}

$$$$
9IV_ttbk2_out
     RDKit          3D

 37 40  0  0  0  0  0  0  0  0999 V2000
   40.6590   27.3180  -11.5560 Cl  0  0  0  0  0  0  0  0  0  0  0  0
   41.7270   26.8300  -12.8200 C   0  0  0  0  0  0  0  0  0  0  0  0
   43.0930   27.0870  -12.6780 C   0  0  0  0  0  0  0  0  0  0  0  0
   43.9850   26.7040  -13.6820 C   0  0  0  0  0  0  0  0  0  0  0  0
   43.5150   26.0580  -14.8250 C   0  0  0  0  0  0  0  0  0  0  0  0
   42.1510   25.7990  -14.9710 C   0  0  0  0  0  0  0  0  0  0  0  0
   41.2520   26.2010  -13.9760 C   0  0  0  0  0  0  0  0  0  0  0  0
   39.9080   25.9180  -14.0850 O   0  0  0  0  0  0  0  0  0  0  0  0
   39.1490   26.7730  -14.8510 C   0  0  0  0  0  0  0  0  0  0  0  0
   38.4570   27.8620  -14.3190 C   0  0  0  0  0  0  0  0  0  0  0  0
   37.6810   28.6660  -15.1580 C   0  0  0  0  0  0  0  0  0  0  0  0
   37.5840   28.3960  -16.5310 C   0  0  0  0  0  0  0  0  0  0  0  0
   36.7610   29.2290  -17.3170 N   0  0  0  0  0  0  0  0  0  0  0  0
   36.4590   30.5850  -17.1170 C   0  0  0  0  0  0  0  0  0  0  0  0
   37.5020   31.4040  -16.8290 N   0  0  0  0  0  0  0  0  0  0  0  0
   37.2600   32.7170  -16.6390 C   0  0  0  0  0  0  0  0  0  0  0  0
   36.0850   33.3630  -16.7090 N   0  0  0  0  0  0  0  0  0  0  0  0
   35.0880   32.5240  -17.0270 C   0  0  0  0  0  0  0  0  0  0  0  0
   33.7840   32.8990  -17.1960 N   0  0  0  0  0  0  0  0  0  0  0  0
   33.0290   31.8070  -17.5410 C   0  0  0  0  0  0  0  0  0  0  0  0
   33.8700   30.7160  -17.5890 C   0  0  0  0  0  0  0  0  0  0  0  0
   35.1820   31.1590  -17.2490 C   0  0  0  0  0  0  0  0  0  0  0  0
   38.2490   27.2740  -17.0390 C   0  0  0  0  0  0  0  0  0  0  0  0
   39.0270   26.4650  -16.2050 C   0  0  0  0  0  0  0  0  0  0  0  0
   43.4662   27.5915  -11.7746 H   0  0  0  0  0  0  0  0  0  0  0  0
   45.0594   26.9121  -13.5711 H   0  0  0  0  0  0  0  0  0  0  0  0
   44.2197   25.7522  -15.6123 H   0  0  0  0  0  0  0  0  0  0  0  0
   41.7827   25.2791  -15.8677 H   0  0  0  0  0  0  0  0  0  0  0  0
   38.5222   28.0864  -13.2441 H   0  0  0  0  0  0  0  0  0  0  0  0
   37.1378   29.5240  -14.7352 H   0  0  0  0  0  0  0  0  0  0  0  0
   36.3460   28.8060  -18.1040 H   0  0  0  0  0  0  0  0  0  0  0  0
   38.1356   33.3369  -16.3960 H   0  0  0  0  0  0  0  0  0  0  0  0
   33.4380   33.8140  -17.0860 H   0  0  0  0  0  0  0  0  0  0  0  0
   31.9477   31.8027  -17.7429 H   0  0  0  0  0  0  0  0  0  0  0  0
   33.5803   29.6860  -17.8444 H   0  0  0  0  0  0  0  0  0  0  0  0
   38.1585   27.0257  -18.1068 H   0  0  0  0  0  0  0  0  0  0  0  0
   39.5428   25.5854  -16.6175 H   0  0  0  0  0  0  0  0  0  0  0  0
  1  2  1  0
  2  3  2  0
  3  4  1  0
  4  5  2  0
  5  6  1  0
  6  7  2  0
  7  8  1  0
  8  9  1  0
  9 10  2  0
 10 11  1  0
 11 12  2  0
 12 13  1  0
 13 14  1  0
 14 15  2  0
 15 16  1  0
 16 17  2  0
 17 18  1  0
 18 19  1  0
 19 20  1  0
 20 21  2  0
 21 22  1  0
 12 23  1  0
 23 24  2  0
  7  2  1  0
 24  9  1  0
 22 14  1  0
 22 18  2  0
  3 25  1  0
  4 26  1  0
  5 27  1  0
  6 28  1  0
 10 29  1  0
 11 30  1  0
 13 31  1  0
 16 32  1  0
 19 33  1  0
 20 34  1  0
 21 35  1  0
 23 36  1  0
 24 37  1  0
M  END
>  <meeko>  (5) 
{"is_sidechain": [false], "free_energy": -9.651, "intermolecular_energy": -12.198, "internal_energy": -0.516}

$$$$
9IV_ttbk2_out
     RDKit          3D

 37 40  0  0  0  0  0  0  0  0999 V2000
   41.1540   26.9150  -11.1440 Cl  0  0  0  0  0  0  0  0  0  0  0  0
   42.1510   26.6470  -12.5260 C   0  0  0  0  0  0  0  0  0  0  0  0
   43.5180   26.9170  -12.4270 C   0  0  0  0  0  0  0  0  0  0  0  0
   44.3530   26.7100  -13.5280 C   0  0  0  0  0  0  0  0  0  0  0  0
   43.8240   26.2280  -14.7250 C   0  0  0  0  0  0  0  0  0  0  0  0
   42.4580   25.9570  -14.8280 C   0  0  0  0  0  0  0  0  0  0  0  0
   41.6160   26.1840  -13.7330 C   0  0  0  0  0  0  0  0  0  0  0  0
   40.2730   25.8840  -13.8040 O   0  0  0  0  0  0  0  0  0  0  0  0
   39.4440   26.8490  -14.3260 C   0  0  0  0  0  0  0  0  0  0  0  0
   38.7670   26.6980  -15.5370 C   0  0  0  0  0  0  0  0  0  0  0  0
   37.9660   27.7380  -16.0170 C   0  0  0  0  0  0  0  0  0  0  0  0
   37.8310   28.9360  -15.3020 C   0  0  0  0  0  0  0  0  0  0  0  0
   37.0320   29.9580  -15.8570 N   0  0  0  0  0  0  0  0  0  0  0  0
   35.7450   30.3580  -15.4650 C   0  0  0  0  0  0  0  0  0  0  0  0
   35.4810   30.3400  -14.1330 N   0  0  0  0  0  0  0  0  0  0  0  0
   34.2600   30.7260  -13.7110 C   0  0  0  0  0  0  0  0  0  0  0  0
   33.2250   31.1570  -14.4490 N   0  0  0  0  0  0  0  0  0  0  0  0
   33.5370   31.1890  -15.7530 C   0  0  0  0  0  0  0  0  0  0  0  0
   32.6920   31.6100  -16.7420 N   0  0  0  0  0  0  0  0  0  0  0  0
   33.3290   31.5420  -17.9550 C   0  0  0  0  0  0  0  0  0  0  0  0
   34.6040   31.0660  -17.7320 C   0  0  0  0  0  0  0  0  0  0  0  0
   34.7420   30.8240  -16.3340 C   0  0  0  0  0  0  0  0  0  0  0  0
   38.5530   29.0870  -14.1120 C   0  0  0  0  0  0  0  0  0  0  0  0
   39.3560   28.0510  -13.6260 C   0  0  0  0  0  0  0  0  0  0  0  0
   43.9372   27.2927  -11.4820 H   0  0  0  0  0  0  0  0  0  0  0  0
   45.4285   26.9274  -13.4506 H   0  0  0  0  0  0  0  0  0  0  0  0
   44.4837   26.0611  -15.5892 H   0  0  0  0  0  0  0  0  0  0  0  0
   42.0439   25.5655  -15.7689 H   0  0  0  0  0  0  0  0  0  0  0  0
   38.8633   25.7647  -16.1112 H   0  0  0  0  0  0  0  0  0  0  0  0
   37.4330   27.6143  -16.9712 H   0  0  0  0  0  0  0  0  0  0  0  0
   37.4260   30.4510  -16.6120 H   0  0  0  0  0  0  0  0  0  0  0  0
   34.0907   30.6822  -12.6250 H   0  0  0  0  0  0  0  0  0  0  0  0
   31.7660   31.9140  -16.6050 H   0  0  0  0  0  0  0  0  0  0  0  0
   32.9002   31.8175  -18.9298 H   0  0  0  0  0  0  0  0  0  0  0  0
   35.3772   30.9022  -18.4971 H   0  0  0  0  0  0  0  0  0  0  0  0
   38.4876   30.0320  -13.5528 H   0  0  0  0  0  0  0  0  0  0  0  0
   39.9188   28.1846  -12.6904 H   0  0  0  0  0  0  0  0  0  0  0  0
  1  2  1  0
  2  3  2  0
  3  4  1  0
  4  5  2  0
  5  6  1  0
  6  7  2  0
  7  8  1  0
  8  9  1  0
  9 10  2  0
 10 11  1  0
 11 12  2  0
 12 13  1  0
 13 14  1  0
 14 15  2  0
 15 16  1  0
 16 17  2  0
 17 18  1  0
 18 19  1  0
 19 20  1  0
 20 21  2  0
 21 22  1  0
 12 23  1  0
 23 24  2  0
  7  2  1  0
 24  9  1  0
 22 14  1  0
 22 18  2  0
  3 25  1  0
  4 26  1  0
  5 27  1  0
  6 28  1  0
 10 29  1  0
 11 30  1  0
 13 31  1  0
 16 32  1  0
 19 33  1  0
 20 34  1  0
 21 35  1  0
 23 36  1  0
 24 37  1  0
M  END
>  <meeko>  (6) 
{"is_sidechain": [false], "free_energy": -9.53, "intermolecular_energy": -12.192, "internal_energy": -0.372}

$$$$
9IV_ttbk2_out
     RDKit          3D

 37 40  0  0  0  0  0  0  0  0999 V2000
   42.0990   25.5070  -16.3380 Cl  0  0  0  0  0  0  0  0  0  0  0  0
   42.2060   26.2190  -14.7710 C   0  0  0  0  0  0  0  0  0  0  0  0
   43.4340   26.7390  -14.3550 C   0  0  0  0  0  0  0  0  0  0  0  0
   43.5540   27.3240  -13.0920 C   0  0  0  0  0  0  0  0  0  0  0  0
   42.4470   27.3950  -12.2460 C   0  0  0  0  0  0  0  0  0  0  0  0
   41.2180   26.8770  -12.6580 C   0  0  0  0  0  0  0  0  0  0  0  0
   41.1000   26.2710  -13.9150 C   0  0  0  0  0  0  0  0  0  0  0  0
   39.8860   25.7910  -14.3540 O   0  0  0  0  0  0  0  0  0  0  0  0
   39.1080   26.6440  -15.1020 C   0  0  0  0  0  0  0  0  0  0  0  0
   38.9460   26.5150  -16.4820 C   0  0  0  0  0  0  0  0  0  0  0  0
   38.1640   27.4420  -17.1770 C   0  0  0  0  0  0  0  0  0  0  0  0
   37.5390   28.5050  -16.5100 C   0  0  0  0  0  0  0  0  0  0  0  0
   36.7880   29.4230  -17.2740 N   0  0  0  0  0  0  0  0  0  0  0  0
   36.3380   30.6980  -16.8970 C   0  0  0  0  0  0  0  0  0  0  0  0
   37.2230   31.4830  -16.2320 N   0  0  0  0  0  0  0  0  0  0  0  0
   36.8370   32.7200  -15.8600 C   0  0  0  0  0  0  0  0  0  0  0  0
   35.6550   33.3200  -16.0720 N   0  0  0  0  0  0  0  0  0  0  0  0
   34.8220   32.5230  -16.7580 C   0  0  0  0  0  0  0  0  0  0  0  0
   33.5580   32.8720  -17.1440 N   0  0  0  0  0  0  0  0  0  0  0  0
   32.9880   31.8420  -17.8490 C   0  0  0  0  0  0  0  0  0  0  0  0
   33.9080   30.8170  -17.9090 C   0  0  0  0  0  0  0  0  0  0  0  0
   35.0750   31.2350  -17.2050 C   0  0  0  0  0  0  0  0  0  0  0  0
   37.7490   28.6440  -15.1330 C   0  0  0  0  0  0  0  0  0  0  0  0
   38.5300   27.7210  -14.4310 C   0  0  0  0  0  0  0  0  0  0  0  0
   44.3070   26.6878  -15.0223 H   0  0  0  0  0  0  0  0  0  0  0  0
   44.5227   27.7292  -12.7642 H   0  0  0  0  0  0  0  0  0  0  0  0
   42.5427   27.8595  -11.2535 H   0  0  0  0  0  0  0  0  0  0  0  0
   40.3425   26.9448  -11.9955 H   0  0  0  0  0  0  0  0  0  0  0  0
   39.4314   25.6877  -17.0204 H   0  0  0  0  0  0  0  0  0  0  0  0
   38.0370   27.3358  -18.2645 H   0  0  0  0  0  0  0  0  0  0  0  0
   36.5500   29.1320  -18.1840 H   0  0  0  0  0  0  0  0  0  0  0  0
   37.5854   33.3127  -15.3136 H   0  0  0  0  0  0  0  0  0  0  0  0
   33.1210   33.7310  -16.9460 H   0  0  0  0  0  0  0  0  0  0  0  0
   31.9791   31.8353  -18.2872 H   0  0  0  0  0  0  0  0  0  0  0  0
   33.7667   29.8485  -18.4110 H   0  0  0  0  0  0  0  0  0  0  0  0
   37.2940   29.4898  -14.5967 H   0  0  0  0  0  0  0  0  0  0  0  0
   38.6885   27.8444  -13.3495 H   0  0  0  0  0  0  0  0  0  0  0  0
  1  2  1  0
  2  3  2  0
  3  4  1  0
  4  5  2  0
  5  6  1  0
  6  7  2  0
  7  8  1  0
  8  9  1  0
  9 10  2  0
 10 11  1  0
 11 12  2  0
 12 13  1  0
 13 14  1  0
 14 15  2  0
 15 16  1  0
 16 17  2  0
 17 18  1  0
 18 19  1  0
 19 20  1  0
 20 21  2  0
 21 22  1  0
 12 23  1  0
 23 24  2  0
  7  2  1  0
 24  9  1  0
 22 14  1  0
 22 18  2  0
  3 25  1  0
  4 26  1  0
  5 27  1  0
  6 28  1  0
 10 29  1  0
 11 30  1  0
 13 31  1  0
 16 32  1  0
 19 33  1  0
 20 34  1  0
 21 35  1  0
 23 36  1  0
 24 37  1  0
M  END
>  <meeko>  (7) 
{"is_sidechain": [false], "free_energy": -9.225, "intermolecular_energy": -11.998, "internal_energy": -0.189}

$$$$
9IV_ttbk2_out
     RDKit          3D

 37 40  0  0  0  0  0  0  0  0999 V2000
   35.0960   34.0300  -18.2460 Cl  0  0  0  0  0  0  0  0  0  0  0  0
   33.9330   33.0020  -17.4940 C   0  0  0  0  0  0  0  0  0  0  0  0
   32.6580   32.9080  -18.0590 C   0  0  0  0  0  0  0  0  0  0  0  0
   31.6940   32.0840  -17.4750 C   0  0  0  0  0  0  0  0  0  0  0  0
   32.0020   31.3480  -16.3310 C   0  0  0  0  0  0  0  0  0  0  0  0
   33.2750   31.4380  -15.7640 C   0  0  0  0  0  0  0  0  0  0  0  0
   34.2370   32.2800  -16.3350 C   0  0  0  0  0  0  0  0  0  0  0  0
   35.5090   32.3510  -15.8110 O   0  0  0  0  0  0  0  0  0  0  0  0
   36.2040   31.1700  -15.6940 C   0  0  0  0  0  0  0  0  0  0  0  0
   36.6980   30.4640  -16.7920 C   0  0  0  0  0  0  0  0  0  0  0  0
   37.3670   29.2540  -16.5930 C   0  0  0  0  0  0  0  0  0  0  0  0
   37.5520   28.7320  -15.3050 C   0  0  0  0  0  0  0  0  0  0  0  0
   38.2090   27.4910  -15.1760 N   0  0  0  0  0  0  0  0  0  0  0  0
   39.4440   27.2270  -14.5610 C   0  0  0  0  0  0  0  0  0  0  0  0
   39.5550   27.5610  -13.2510 N   0  0  0  0  0  0  0  0  0  0  0  0
   40.7200   27.3150  -12.6180 C   0  0  0  0  0  0  0  0  0  0  0  0
   41.8320   26.7510  -13.1150 N   0  0  0  0  0  0  0  0  0  0  0  0
   41.6690   26.4070  -14.4010 C   0  0  0  0  0  0  0  0  0  0  0  0
   42.6200   25.7890  -15.1650 N   0  0  0  0  0  0  0  0  0  0  0  0
   42.1240   25.5560  -16.4230 C   0  0  0  0  0  0  0  0  0  0  0  0
   40.8330   26.0390  -16.4590 C   0  0  0  0  0  0  0  0  0  0  0  0
   40.5380   26.5970  -15.1810 C   0  0  0  0  0  0  0  0  0  0  0  0
   37.0110   29.4310  -14.2190 C   0  0  0  0  0  0  0  0  0  0  0  0
   36.3400   30.6430  -14.4110 C   0  0  0  0  0  0  0  0  0  0  0  0
   32.4140   33.4835  -18.9641 H   0  0  0  0  0  0  0  0  0  0  0  0
   30.6895   32.0151  -17.9180 H   0  0  0  0  0  0  0  0  0  0  0  0
   31.2419   30.6964  -15.8752 H   0  0  0  0  0  0  0  0  0  0  0  0
   33.5219   30.8477  -14.8692 H   0  0  0  0  0  0  0  0  0  0  0  0
   36.5611   30.8587  -17.8096 H   0  0  0  0  0  0  0  0  0  0  0  0
   37.7552   28.7015  -17.4614 H   0  0  0  0  0  0  0  0  0  0  0  0
   37.7460   26.7150  -15.5640 H   0  0  0  0  0  0  0  0  0  0  0  0
   40.7647   27.6144  -11.5605 H   0  0  0  0  0  0  0  0  0  0  0  0
   43.5240   25.5480  -14.8600 H   0  0  0  0  0  0  0  0  0  0  0  0
   42.6595   25.0715  -17.2528 H   0  0  0  0  0  0  0  0  0  0  0  0
   40.1513   26.0005  -17.3215 H   0  0  0  0  0  0  0  0  0  0  0  0
   37.1150   29.0221  -13.2031 H   0  0  0  0  0  0  0  0  0  0  0  0
   35.9192   31.1808  -13.5486 H   0  0  0  0  0  0  0  0  0  0  0  0
  1  2  1  0
  2  3  2  0
  3  4  1  0
  4  5  2  0
  5  6  1  0
  6  7  2  0
  7  8  1  0
  8  9  1  0
  9 10  2  0
 10 11  1  0
 11 12  2  0
 12 13  1  0
 13 14  1  0
 14 15  2  0
 15 16  1  0
 16 17  2  0
 17 18  1  0
 18 19  1  0
 19 20  1  0
 20 21  2  0
 21 22  1  0
 12 23  1  0
 23 24  2  0
  7  2  1  0
 24  9  1  0
 22 14  1  0
 22 18  2  0
  3 25  1  0
  4 26  1  0
  5 27  1  0
  6 28  1  0
 10 29  1  0
 11 30  1  0
 13 31  1  0
 16 32  1  0
 19 33  1  0
 20 34  1  0
 21 35  1  0
 23 36  1  0
 24 37  1  0
M  END
>  <meeko>  (8) 
{"is_sidechain": [false], "free_energy": -8.907, "intermolecular_energy": -11.189, "internal_energy": -0.606}

$$$$
9IV_ttbk2_out
     RDKit          3D

 37 40  0  0  0  0  0  0  0  0999 V2000
   32.3750   31.5670  -17.0380 Cl  0  0  0  0  0  0  0  0  0  0  0  0
   33.9490   32.2490  -17.2210 C   0  0  0  0  0  0  0  0  0  0  0  0
   34.0700   33.4980  -17.8350 C   0  0  0  0  0  0  0  0  0  0  0  0
   35.3300   34.0790  -17.9970 C   0  0  0  0  0  0  0  0  0  0  0  0
   36.4690   33.4150  -17.5420 C   0  0  0  0  0  0  0  0  0  0  0  0
   36.3530   32.1670  -16.9280 C   0  0  0  0  0  0  0  0  0  0  0  0
   35.0930   31.5730  -16.7830 C   0  0  0  0  0  0  0  0  0  0  0  0
   34.9560   30.3600  -16.1440 O   0  0  0  0  0  0  0  0  0  0  0  0
   36.0810   29.5740  -16.0450 C   0  0  0  0  0  0  0  0  0  0  0  0
   36.5690   28.8070  -17.1030 C   0  0  0  0  0  0  0  0  0  0  0  0
   37.7010   28.0090  -16.9150 C   0  0  0  0  0  0  0  0  0  0  0  0
   38.3570   27.9650  -15.6770 C   0  0  0  0  0  0  0  0  0  0  0  0
   39.4760   27.1170  -15.5440 N   0  0  0  0  0  0  0  0  0  0  0  0
   40.3710   27.0270  -14.4660 C   0  0  0  0  0  0  0  0  0  0  0  0
   39.9360   27.5080  -13.2730 N   0  0  0  0  0  0  0  0  0  0  0  0
   40.7590   27.4330  -12.2080 C   0  0  0  0  0  0  0  0  0  0  0  0
   41.9970   26.9170  -12.1500 N   0  0  0  0  0  0  0  0  0  0  0  0
   42.3750   26.4260  -13.3390 C   0  0  0  0  0  0  0  0  0  0  0  0
   43.5750   25.8150  -13.5800 N   0  0  0  0  0  0  0  0  0  0  0  0
   43.6330   25.4070  -14.8890 C   0  0  0  0  0  0  0  0  0  0  0  0
   42.4460   25.7690  -15.4920 C   0  0  0  0  0  0  0  0  0  0  0  0
   41.6440   26.4320  -14.5180 C   0  0  0  0  0  0  0  0  0  0  0  0
   37.8270   28.7080  -14.6150 C   0  0  0  0  0  0  0  0  0  0  0  0
   36.6950   29.5070  -14.7960 C   0  0  0  0  0  0  0  0  0  0  0  0
   33.1723   34.0245  -18.1912 H   0  0  0  0  0  0  0  0  0  0  0  0
   35.4239   35.0609  -18.4838 H   0  0  0  0  0  0  0  0  0  0  0  0
   37.4601   33.8755  -17.6672 H   0  0  0  0  0  0  0  0  0  0  0  0
   37.2508   31.6502  -16.5581 H   0  0  0  0  0  0  0  0  0  0  0  0
   36.0653   28.8301  -18.0806 H   0  0  0  0  0  0  0  0  0  0  0  0
   38.0832   27.4059  -17.7518 H   0  0  0  0  0  0  0  0  0  0  0  0
   39.6520   26.5130  -16.3020 H   0  0  0  0  0  0  0  0  0  0  0  0
   40.3665   27.8470  -11.2675 H   0  0  0  0  0  0  0  0  0  0  0  0
   44.2890   25.6870  -12.9160 H   0  0  0  0  0  0  0  0  0  0  0  0
   44.4736   24.8858  -15.3703 H   0  0  0  0  0  0  0  0  0  0  0  0
   42.1678   25.5794  -16.5392 H   0  0  0  0  0  0  0  0  0  0  0  0
   38.3075   28.6621  -13.6265 H   0  0  0  0  0  0  0  0  0  0  0  0
   36.2884   30.0834  -13.9520 H   0  0  0  0  0  0  0  0  0  0  0  0
  1  2  1  0
  2  3  2  0
  3  4  1  0
  4  5  2  0
  5  6  1  0
  6  7  2  0
  7  8  1  0
  8  9  1  0
  9 10  2  0
 10 11  1  0
 11 12  2  0
 12 13  1  0
 13 14  1  0
 14 15  2  0
 15 16  1  0
 16 17  2  0
 17 18  1  0
 18 19  1  0
 19 20  1  0
 20 21  2  0
 21 22  1  0
 12 23  1  0
 23 24  2  0
  7  2  1  0
 24  9  1  0
 22 14  1  0
 22 18  2  0
  3 25  1  0
  4 26  1  0
  5 27  1  0
  6 28  1  0
 10 29  1  0
 11 30  1  0
 13 31  1  0
 16 32  1  0
 19 33  1  0
 20 34  1  0
 21 35  1  0
 23 36  1  0
 24 37  1  0
M  END
>  <meeko>  (9) 
{"is_sidechain": [false], "free_energy": -8.786, "intermolecular_energy": -11.88, "internal_energy": 0.235}

$$$$
