isatin_out
     RDKit          3D

 16 17  0  0  0  0  0  0  0  0999 V2000
   33.0360   33.6620  -18.1370 O   0  0  0  0  0  0  0  0  0  0  0  0
   33.8700   32.8510  -17.8020 C   0  0  0  0  0  0  0  0  0  0  0  0
   33.9480   31.5150  -18.1460 N   0  0  0  0  0  0  0  0  0  0  0  0
   35.0560   30.9140  -17.5570 C   0  0  0  0  0  0  0  0  0  0  0  0
   35.4520   29.5980  -17.6750 C   0  0  0  0  0  0  0  0  0  0  0  0
   36.6090   29.2120  -16.9890 C   0  0  0  0  0  0  0  0  0  0  0  0
   37.3390   30.1340  -16.2090 C   0  0  0  0  0  0  0  0  0  0  0  0
   36.9250   31.4640  -16.1010 C   0  0  0  0  0  0  0  0  0  0  0  0
   35.7810   31.8190  -16.7870 C   0  0  0  0  0  0  0  0  0  0  0  0
   35.0940   33.1090  -16.8780 C   0  0  0  0  0  0  0  0  0  0  0  0
   35.4130   34.1480  -16.3480 O   0  0  0  0  0  0  0  0  0  0  0  0
   33.3040   31.0510  -18.7290 H   0  0  0  0  0  0  0  0  0  0  0  0
   34.8815   28.8810  -18.2836 H   0  0  0  0  0  0  0  0  0  0  0  0
   36.9559   28.1705  -17.0591 H   0  0  0  0  0  0  0  0  0  0  0  0
   38.2444   29.8017  -15.6800 H   0  0  0  0  0  0  0  0  0  0  0  0
   37.4845   32.1940  -15.4976 H   0  0  0  0  0  0  0  0  0  0  0  0
  1  2  2  0
  2  3  1  0
  3  4  1  0
  4  5  2  0
  5  6  1  0
  6  7  2  0
  7  8  1  0
  8  9  2  0
  9 10  1  0
 10 11  2  0
 10  2  1  0
  9  4  1  0
  3 12  1  0
  5 13  1  0
  6 14  1  0
  7 15  1  0
  8 16  1  0
M  END
>  <meeko>  (1) 
{"is_sidechain": [false], "free_energy": -6.869, "intermolecular_energy": -6.869, "internal_energy": 0.0}

$$$$
isatin_out
     RDKit          3D

 16 17  0  0  0  0  0  0  0  0999 V2000
   39.4450   26.5480  -17.4180 O   0  0  0  0  0  0  0  0  0  0  0  0
   38.5890   27.3400  -17.0930 C   0  0  0  0  0  0  0  0  0  0  0  0
   37.6420   27.9490  -17.8930 N   0  0  0  0  0  0  0  0  0  0  0  0
   36.8320   28.7990  -17.1460 C   0  0  0  0  0  0  0  0  0  0  0  0
   35.7860   29.5710  -17.6040 C   0  0  0  0  0  0  0  0  0  0  0  0
   35.1060   30.3550  -16.6650 C   0  0  0  0  0  0  0  0  0  0  0  0
   35.4800   30.3540  -15.3050 C   0  0  0  0  0  0  0  0  0  0  0  0
   36.5420   29.5670  -14.8560 C   0  0  0  0  0  0  0  0  0  0  0  0
   37.1960   28.8020  -15.8020 C   0  0  0  0  0  0  0  0  0  0  0  0
   38.3290   27.8860  -15.6600 C   0  0  0  0  0  0  0  0  0  0  0  0
   38.9290   27.6150  -14.6470 O   0  0  0  0  0  0  0  0  0  0  0  0
   37.5530   27.8020  -18.8630 H   0  0  0  0  0  0  0  0  0  0  0  0
   35.4972   29.5709  -18.6654 H   0  0  0  0  0  0  0  0  0  0  0  0
   34.2649   30.9832  -16.9935 H   0  0  0  0  0  0  0  0  0  0  0  0
   34.9281   30.9811  -14.5894 H   0  0  0  0  0  0  0  0  0  0  0  0
   36.8439   29.5566  -13.7983 H   0  0  0  0  0  0  0  0  0  0  0  0
  1  2  2  0
  2  3  1  0
  3  4  1  0
  4  5  2  0
  5  6  1  0
  6  7  2  0
  7  8  1  0
  8  9  2  0
  9 10  1  0
 10 11  2  0
 10  2  1  0
  9  4  1  0
  3 12  1  0
  5 13  1  0
  6 14  1  0
  7 15  1  0
  8 16  1  0
M  END
>  <meeko>  (2) 
{"is_sidechain": [false], "free_energy": -6.801, "intermolecular_energy": -6.801, "internal_energy": 0.0}

$$$$
isatin_out
     RDKit          3D

 16 17  0  0  0  0  0  0  0  0999 V2000
   39.2370   26.8700  -15.7540 O   0  0  0  0  0  0  0  0  0  0  0  0
   38.3340   27.6710  -15.8550 C   0  0  0  0  0  0  0  0  0  0  0  0
   37.7340   28.4110  -14.8550 N   0  0  0  0  0  0  0  0  0  0  0  0
   36.7300   29.2230  -15.3720 C   0  0  0  0  0  0  0  0  0  0  0  0
   35.9200   30.0950  -14.6750 C   0  0  0  0  0  0  0  0  0  0  0  0
   34.9710   30.8160  -15.4080 C   0  0  0  0  0  0  0  0  0  0  0  0
   34.8490   30.6550  -16.8050 C   0  0  0  0  0  0  0  0  0  0  0  0
   35.6780   29.7680  -17.4960 C   0  0  0  0  0  0  0  0  0  0  0  0
   36.6060   29.0690  -16.7510 C   0  0  0  0  0  0  0  0  0  0  0  0
   37.6030   28.0810  -17.1650 C   0  0  0  0  0  0  0  0  0  0  0  0
   37.8110   27.6760  -18.2840 O   0  0  0  0  0  0  0  0  0  0  0  0
   37.9840   28.3680  -13.9030 H   0  0  0  0  0  0  0  0  0  0  0  0
   36.0162   30.2187  -13.5862 H   0  0  0  0  0  0  0  0  0  0  0  0
   34.3077   31.5213  -14.8859 H   0  0  0  0  0  0  0  0  0  0  0  0
   34.0930   31.2342  -17.3555 H   0  0  0  0  0  0  0  0  0  0  0  0
   35.5949   29.6328  -18.5845 H   0  0  0  0  0  0  0  0  0  0  0  0
  1  2  2  0
  2  3  1  0
  3  4  1  0
  4  5  2  0
  5  6  1  0
  6  7  2  0
  7  8  1  0
  8  9  2  0
  9 10  1  0
 10 11  2  0
 10  2  1  0
  9  4  1  0
  3 12  1  0
  5 13  1  0
  6 14  1  0
  7 15  1  0
  8 16  1  0
M  END
>  <meeko>  (3) 
{"is_sidechain": [false], "free_energy": -6.765, "intermolecular_energy": -6.765, "internal_energy": 0.0}

$$$$
isatin_out
     RDKit          3D

 16 17  0  0  0  0  0  0  0  0999 V2000
   37.4830   26.9020  -18.6330 O   0  0  0  0  0  0  0  0  0  0  0  0
   37.9540   27.1230  -17.5400 C   0  0  0  0  0  0  0  0  0  0  0  0
   38.9520   26.4290  -16.8840 N   0  0  0  0  0  0  0  0  0  0  0  0
   39.2180   26.9950  -15.6410 C   0  0  0  0  0  0  0  0  0  0  0  0
   40.1450   26.5730  -14.7130 C   0  0  0  0  0  0  0  0  0  0  0  0
   40.2400   27.3020  -13.5220 C   0  0  0  0  0  0  0  0  0  0  0  0
   39.4180   28.4230  -13.2830 C   0  0  0  0  0  0  0  0  0  0  0  0
   38.4820   28.8380  -14.2340 C   0  0  0  0  0  0  0  0  0  0  0  0
   38.4090   28.1030  -15.4000 C   0  0  0  0  0  0  0  0  0  0  0  0
   37.5500   28.2730  -16.5740 C   0  0  0  0  0  0  0  0  0  0  0  0
   36.7100   29.1240  -16.7490 O   0  0  0  0  0  0  0  0  0  0  0  0
   39.4130   25.6390  -17.2480 H   0  0  0  0  0  0  0  0  0  0  0  0
   40.7848   25.6981  -14.9007 H   0  0  0  0  0  0  0  0  0  0  0  0
   40.9694   26.9949  -12.7580 H   0  0  0  0  0  0  0  0  0  0  0  0
   39.5148   28.9767  -12.3375 H   0  0  0  0  0  0  0  0  0  0  0  0
   37.8337   29.7097  -14.0614 H   0  0  0  0  0  0  0  0  0  0  0  0
  1  2  2  0
  2  3  1  0
  3  4  1  0
  4  5  2  0
  5  6  1  0
  6  7  2  0
  7  8  1  0
  8  9  2  0
  9 10  1  0
 10 11  2  0
 10  2  1  0
  9  4  1  0
  3 12  1  0
  5 13  1  0
  6 14  1  0
  7 15  1  0
  8 16  1  0
M  END
>  <meeko>  (4) 
{"is_sidechain": [false], "free_energy": -6.722, "intermolecular_energy": -6.722, "internal_energy": 0.0}

$$$$
isatin_out
     RDKit          3D

 16 17  0  0  0  0  0  0  0  0999 V2000
   40.3810   26.5700  -15.1310 O   0  0  0  0  0  0  0  0  0  0  0  0
   39.4290   27.2790  -15.3710 C   0  0  0  0  0  0  0  0  0  0  0  0
   38.7160   27.3780  -16.5500 N   0  0  0  0  0  0  0  0  0  0  0  0
   37.6870   28.3070  -16.4320 C   0  0  0  0  0  0  0  0  0  0  0  0
   36.7740   28.6690  -17.3990 C   0  0  0  0  0  0  0  0  0  0  0  0
   35.8190   29.6330  -17.0540 C   0  0  0  0  0  0  0  0  0  0  0  0
   35.7950   30.2090  -15.7660 C   0  0  0  0  0  0  0  0  0  0  0  0
   36.7270   29.8310  -14.7960 C   0  0  0  0  0  0  0  0  0  0  0  0
   37.6570   28.8800  -15.1620 C   0  0  0  0  0  0  0  0  0  0  0  0
   38.7500   28.2790  -14.3940 C   0  0  0  0  0  0  0  0  0  0  0  0
   39.0540   28.5140  -13.2480 O   0  0  0  0  0  0  0  0  0  0  0  0
   38.9110   26.8610  -17.3650 H   0  0  0  0  0  0  0  0  0  0  0  0
   36.7948   28.2183  -18.4022 H   0  0  0  0  0  0  0  0  0  0  0  0
   35.0742   29.9469  -17.8002 H   0  0  0  0  0  0  0  0  0  0  0  0
   35.0335   30.9646  -15.5227 H   0  0  0  0  0  0  0  0  0  0  0  0
   36.7195   30.2710  -13.7879 H   0  0  0  0  0  0  0  0  0  0  0  0
  1  2  2  0
  2  3  1  0
  3  4  1  0
  4  5  2  0
  5  6  1  0
  6  7  2  0
  7  8  1  0
  8  9  2  0
  9 10  1  0
 10 11  2  0
 10  2  1  0
  9  4  1  0
  3 12  1  0
  5 13  1  0
  6 14  1  0
  7 15  1  0
  8 16  1  0
M  END
>  <meeko>  (5) 
{"is_sidechain": [false], "free_energy": -6.648, "intermolecular_energy": -6.648, "internal_energy": 0.0}

$$$$
isatin_out
     RDKit          3D

 16 17  0  0  0  0  0  0  0  0999 V2000
   37.9570   26.8990  -17.1860 O   0  0  0  0  0  0  0  0  0  0  0  0
   38.7000   26.9060  -16.2300 C   0  0  0  0  0  0  0  0  0  0  0  0
   38.4230   27.3040  -14.9370 N   0  0  0  0  0  0  0  0  0  0  0  0
   39.5430   27.1640  -14.1230 C   0  0  0  0  0  0  0  0  0  0  0  0
   39.6410   27.4610  -12.7800 C   0  0  0  0  0  0  0  0  0  0  0  0
   40.8760   27.2370  -12.1610 C   0  0  0  0  0  0  0  0  0  0  0  0
   41.9750   26.7280  -12.8840 C   0  0  0  0  0  0  0  0  0  0  0  0
   41.8600   26.4320  -14.2450 C   0  0  0  0  0  0  0  0  0  0  0  0
   40.6320   26.6610  -14.8320 C   0  0  0  0  0  0  0  0  0  0  0  0
   40.1900   26.4590  -16.2130 C   0  0  0  0  0  0  0  0  0  0  0  0
   40.8450   26.0350  -17.1360 O   0  0  0  0  0  0  0  0  0  0  0  0
   37.5500   27.6430  -14.6330 H   0  0  0  0  0  0  0  0  0  0  0  0
   38.7829   27.8580  -12.2178 H   0  0  0  0  0  0  0  0  0  0  0  0
   40.9918   27.4621  -11.0905 H   0  0  0  0  0  0  0  0  0  0  0  0
   42.9336   26.5621  -12.3707 H   0  0  0  0  0  0  0  0  0  0  0  0
   42.7086   26.0350  -14.8215 H   0  0  0  0  0  0  0  0  0  0  0  0
  1  2  2  0
  2  3  1  0
  3  4  1  0
  4  5  2  0
  5  6  1  0
  6  7  2  0
  7  8  1  0
  8  9  2  0
  9 10  1  0
 10 11  2  0
 10  2  1  0
  9  4  1  0
  3 12  1  0
  5 13  1  0
  6 14  1  0
  7 15  1  0
  8 16  1  0
M  END
>  <meeko>  (6) 
{"is_sidechain": [false], "free_energy": -6.595, "intermolecular_energy": -6.595, "internal_energy": 0.0}

$$$$
isatin_out
     RDKit          3D

 16 17  0  0  0  0  0  0  0  0999 V2000
   38.0330   27.4790  -15.2050 O   0  0  0  0  0  0  0  0  0  0  0  0
   39.1600   27.2300  -14.8370 C   0  0  0  0  0  0  0  0  0  0  0  0
   40.1150   26.4620  -15.4720 N   0  0  0  0  0  0  0  0  0  0  0  0
   41.2900   26.4130  -14.7280 C   0  0  0  0  0  0  0  0  0  0  0  0
   42.4530   25.7440  -15.0470 C   0  0  0  0  0  0  0  0  0  0  0  0
   43.5170   25.8370  -14.1420 C   0  0  0  0  0  0  0  0  0  0  0  0
   43.4000   26.5860  -12.9520 C   0  0  0  0  0  0  0  0  0  0  0  0
   42.2160   27.2580  -12.6430 C   0  0  0  0  0  0  0  0  0  0  0  0
   41.1820   27.1510  -13.5520 C   0  0  0  0  0  0  0  0  0  0  0  0
   39.8350   27.7240  -13.5250 C   0  0  0  0  0  0  0  0  0  0  0  0
   39.3550   28.4280  -12.6670 O   0  0  0  0  0  0  0  0  0  0  0  0
   39.9820   26.0080  -16.3360 H   0  0  0  0  0  0  0  0  0  0  0  0
   42.5411   25.1606  -15.9754 H   0  0  0  0  0  0  0  0  0  0  0  0
   44.4609   25.3170  -14.3625 H   0  0  0  0  0  0  0  0  0  0  0  0
   44.2525   26.6411  -12.2590 H   0  0  0  0  0  0  0  0  0  0  0  0
   42.1116   27.8452  -11.7187 H   0  0  0  0  0  0  0  0  0  0  0  0
  1  2  2  0
  2  3  1  0
  3  4  1  0
  4  5  2  0
  5  6  1  0
  6  7  2  0
  7  8  1  0
  8  9  2  0
  9 10  1  0
 10 11  2  0
 10  2  1  0
  9  4  1  0
  3 12  1  0
  5 13  1  0
  6 14  1  0
  7 15  1  0
  8 16  1  0
M  END
>  <meeko>  (7) 
{"is_sidechain": [false], "free_energy": -6.529, "intermolecular_energy": -6.529, "internal_energy": 0.0}

$$$$
isatin_out
     RDKit          3D

 16 17  0  0  0  0  0  0  0  0999 V2000
   40.1910   26.6670  -14.4680 O   0  0  0  0  0  0  0  0  0  0  0  0
   39.2830   27.3270  -14.9220 C   0  0  0  0  0  0  0  0  0  0  0  0
   38.5270   28.2910  -14.2840 N   0  0  0  0  0  0  0  0  0  0  0  0
   37.5740   28.8260  -15.1450 C   0  0  0  0  0  0  0  0  0  0  0  0
   36.6470   29.8050  -14.8590 C   0  0  0  0  0  0  0  0  0  0  0  0
   35.7810   30.1920  -15.8880 C   0  0  0  0  0  0  0  0  0  0  0  0
   35.8570   29.6010  -17.1680 C   0  0  0  0  0  0  0  0  0  0  0  0
   36.8030   28.6100  -17.4420 C   0  0  0  0  0  0  0  0  0  0  0  0
   37.6440   28.2470  -16.4100 C   0  0  0  0  0  0  0  0  0  0  0  0
   38.7240   27.2580  -16.3710 C   0  0  0  0  0  0  0  0  0  0  0  0
   39.0960   26.5450  -17.2730 O   0  0  0  0  0  0  0  0  0  0  0  0
   38.6460   28.5620  -13.3440 H   0  0  0  0  0  0  0  0  0  0  0  0
   36.5901   30.2642  -13.8610 H   0  0  0  0  0  0  0  0  0  0  0  0
   35.0278   30.9704  -15.6962 H   0  0  0  0  0  0  0  0  0  0  0  0
   35.1637   29.9244  -17.9584 H   0  0  0  0  0  0  0  0  0  0  0  0
   36.8741   28.1409  -18.4344 H   0  0  0  0  0  0  0  0  0  0  0  0
  1  2  2  0
  2  3  1  0
  3  4  1  0
  4  5  2  0
  5  6  1  0
  6  7  2  0
  7  8  1  0
  8  9  2  0
  9 10  1  0
 10 11  2  0
 10  2  1  0
  9  4  1  0
  3 12  1  0
  5 13  1  0
  6 14  1  0
  7 15  1  0
  8 16  1  0
M  END
>  <meeko>  (8) 
{"is_sidechain": [false], "free_energy": -6.472, "intermolecular_energy": -6.472, "internal_energy": 0.0}

$$$$
isatin_out
     RDKit          3D

 16 17  0  0  0  0  0  0  0  0999 V2000
   35.6890   34.7870  -18.9750 O   0  0  0  0  0  0  0  0  0  0  0  0
   35.5970   33.9150  -18.1410 C   0  0  0  0  0  0  0  0  0  0  0  0
   36.6090   33.3210  -17.4110 N   0  0  0  0  0  0  0  0  0  0  0  0
   36.1000   32.3560  -16.5490 C   0  0  0  0  0  0  0  0  0  0  0  0
   36.8100   31.5630  -15.6720 C   0  0  0  0  0  0  0  0  0  0  0  0
   36.0830   30.6530  -14.8950 C   0  0  0  0  0  0  0  0  0  0  0  0
   34.6790   30.5540  -15.0080 C   0  0  0  0  0  0  0  0  0  0  0  0
   33.9750   31.3640  -15.9010 C   0  0  0  0  0  0  0  0  0  0  0  0
   34.7150   32.2530  -16.6550 C   0  0  0  0  0  0  0  0  0  0  0  0
   34.2880   33.2240  -17.6640 C   0  0  0  0  0  0  0  0  0  0  0  0
   33.1600   33.4400  -18.0410 O   0  0  0  0  0  0  0  0  0  0  0  0
   37.5640   33.5510  -17.4930 H   0  0  0  0  0  0  0  0  0  0  0  0
   37.9038   31.6423  -15.5864 H   0  0  0  0  0  0  0  0  0  0  0  0
   36.6150   30.0038  -14.1840 H   0  0  0  0  0  0  0  0  0  0  0  0
   34.1334   29.8300  -14.3850 H   0  0  0  0  0  0  0  0  0  0  0  0
   32.8815   31.2971  -15.9993 H   0  0  0  0  0  0  0  0  0  0  0  0
  1  2  2  0
  2  3  1  0
  3  4  1  0
  4  5  2  0
  5  6  1  0
  6  7  2  0
  7  8  1  0
  8  9  2  0
  9 10  1  0
 10 11  2  0
 10  2  1  0
  9  4  1  0
  3 12  1  0
  5 13  1  0
  6 14  1  0
  7 15  1  0
  8 16  1  0
M  END
>  <meeko>  (9) 
{"is_sidechain": [false], "free_energy": -6.345, "intermolecular_energy": -6.345, "internal_energy": 0.0}

$$$$
