kaempferol_out
     RDKit          3D

 31 33  0  0  0  0  0  0  0  0999 V2000
   39.8810   26.2180  -17.5330 O   0  0  0  0  0  0  0  0  0  0  0  0
   39.3720   26.9030  -16.6480 C   0  0  0  0  0  0  0  0  0  0  0  0
   38.1710   27.7240  -16.9290 C   0  0  0  0  0  0  0  0  0  0  0  0
   37.6570   27.6680  -18.2110 O   0  0  0  0  0  0  0  0  0  0  0  0
   37.6450   28.4560  -15.9300 C   0  0  0  0  0  0  0  0  0  0  0  0
   36.4420   29.3010  -16.0890 C   0  0  0  0  0  0  0  0  0  0  0  0
   35.8660   29.5390  -17.3470 C   0  0  0  0  0  0  0  0  0  0  0  0
   34.7420   30.3600  -17.4780 C   0  0  0  0  0  0  0  0  0  0  0  0
   34.1930   30.9550  -16.3480 C   0  0  0  0  0  0  0  0  0  0  0  0
   33.0980   31.7620  -16.4290 O   0  0  0  0  0  0  0  0  0  0  0  0
   34.7500   30.7440  -15.0940 C   0  0  0  0  0  0  0  0  0  0  0  0
   35.8730   29.9220  -14.9640 C   0  0  0  0  0  0  0  0  0  0  0  0
   38.1570   28.4840  -14.6370 O   0  0  0  0  0  0  0  0  0  0  0  0
   39.2720   27.7390  -14.3480 C   0  0  0  0  0  0  0  0  0  0  0  0
   39.7590   27.8040  -13.0430 C   0  0  0  0  0  0  0  0  0  0  0  0
   40.8880   27.0680  -12.6940 C   0  0  0  0  0  0  0  0  0  0  0  0
   41.3300   27.1590  -11.4080 O   0  0  0  0  0  0  0  0  0  0  0  0
   41.5400   26.2670  -13.6280 C   0  0  0  0  0  0  0  0  0  0  0  0
   41.0500   26.2070  -14.9300 C   0  0  0  0  0  0  0  0  0  0  0  0
   41.7300   25.4040  -15.8070 O   0  0  0  0  0  0  0  0  0  0  0  0
   39.9160   26.9420  -15.2900 C   0  0  0  0  0  0  0  0  0  0  0  0
   38.0890   27.1550  -18.8660 H   0  0  0  0  0  0  0  0  0  0  0  0
   36.3050   29.0732  -18.2416 H   0  0  0  0  0  0  0  0  0  0  0  0
   34.2953   30.5339  -18.4681 H   0  0  0  0  0  0  0  0  0  0  0  0
   33.2000   32.6720  -16.6310 H   0  0  0  0  0  0  0  0  0  0  0  0
   34.3094   31.2217  -14.2065 H   0  0  0  0  0  0  0  0  0  0  0  0
   36.3162   29.7594  -13.9704 H   0  0  0  0  0  0  0  0  0  0  0  0
   39.2545   28.4326  -12.2944 H   0  0  0  0  0  0  0  0  0  0  0  0
   41.1150   27.9110  -10.8920 H   0  0  0  0  0  0  0  0  0  0  0  0
   42.4308   25.6890  -13.3409 H   0  0  0  0  0  0  0  0  0  0  0  0
   42.2620   24.7040  -15.4850 H   0  0  0  0  0  0  0  0  0  0  0  0
  1  2  2  0
  2  3  1  0
  3  4  1  0
  3  5  2  0
  5  6  1  0
  6  7  2  0
  7  8  1  0
  8  9  2  0
  9 10  1  0
  9 11  1  0
 11 12  2  0
  5 13  1  0
 13 14  1  0
 14 15  2  0
 15 16  1  0
 16 17  1  0
 16 18  2  0
 18 19  1  0
 19 20  1  0
 19 21  2  0
 21  2  1  0
 12  6  1  0
 21 14  1  0
  4 22  1  0
  7 23  1  0
  8 24  1  0
 10 25  1  0
 11 26  1  0
 12 27  1  0
 15 28  1  0
 17 29  1  0
 18 30  1  0
 20 31  1  0
M  END
>  <meeko>  (1) 
{"is_sidechain": [false], "free_energy": -9.619, "intermolecular_energy": -11.306, "internal_energy": 0.333}

$$$$
kaempferol_out
     RDKit          3D

 31 33  0  0  0  0  0  0  0  0999 V2000
   37.6350   27.1580  -18.3140 O   0  0  0  0  0  0  0  0  0  0  0  0
   37.7910   27.6660  -17.2060 C   0  0  0  0  0  0  0  0  0  0  0  0
   38.8690   27.1970  -16.3060 C   0  0  0  0  0  0  0  0  0  0  0  0
   39.6840   26.1840  -16.7780 O   0  0  0  0  0  0  0  0  0  0  0  0
   39.0040   27.7840  -15.1030 C   0  0  0  0  0  0  0  0  0  0  0  0
   40.0520   27.4080  -14.1290 C   0  0  0  0  0  0  0  0  0  0  0  0
   39.9430   27.7280  -12.7660 C   0  0  0  0  0  0  0  0  0  0  0  0
   40.9550   27.3840  -11.8650 C   0  0  0  0  0  0  0  0  0  0  0  0
   42.0880   26.7250  -12.3280 C   0  0  0  0  0  0  0  0  0  0  0  0
   43.0990   26.3710  -11.4850 O   0  0  0  0  0  0  0  0  0  0  0  0
   42.2240   26.4070  -13.6720 C   0  0  0  0  0  0  0  0  0  0  0  0
   41.2110   26.7500  -14.5710 C   0  0  0  0  0  0  0  0  0  0  0  0
   38.1940   28.8200  -14.6510 O   0  0  0  0  0  0  0  0  0  0  0  0
   37.1820   29.2730  -15.4590 C   0  0  0  0  0  0  0  0  0  0  0  0
   36.3860   30.3050  -14.9630 C   0  0  0  0  0  0  0  0  0  0  0  0
   35.3450   30.8030  -15.7410 C   0  0  0  0  0  0  0  0  0  0  0  0
   34.5920   31.8120  -15.2190 O   0  0  0  0  0  0  0  0  0  0  0  0
   35.0850   30.2870  -17.0090 C   0  0  0  0  0  0  0  0  0  0  0  0
   35.8820   29.2560  -17.4990 C   0  0  0  0  0  0  0  0  0  0  0  0
   35.5820   28.7870  -18.7490 O   0  0  0  0  0  0  0  0  0  0  0  0
   36.9310   28.7490  -16.7240 C   0  0  0  0  0  0  0  0  0  0  0  0
   40.3130   25.7860  -16.2080 H   0  0  0  0  0  0  0  0  0  0  0  0
   39.0494   28.2564  -12.4024 H   0  0  0  0  0  0  0  0  0  0  0  0
   40.8555   27.6328  -10.7981 H   0  0  0  0  0  0  0  0  0  0  0  0
   43.5020   25.5280  -11.5640 H   0  0  0  0  0  0  0  0  0  0  0  0
   43.1256   25.8870  -14.0280 H   0  0  0  0  0  0  0  0  0  0  0  0
   41.3226   26.5018  -15.6368 H   0  0  0  0  0  0  0  0  0  0  0  0
   36.5795   30.7225  -13.9639 H   0  0  0  0  0  0  0  0  0  0  0  0
   34.1780   31.7040  -14.3860 H   0  0  0  0  0  0  0  0  0  0  0  0
   34.2601   30.6893  -17.6154 H   0  0  0  0  0  0  0  0  0  0  0  0
   36.2600   28.4400  -19.2950 H   0  0  0  0  0  0  0  0  0  0  0  0
  1  2  2  0
  2  3  1  0
  3  4  1  0
  3  5  2  0
  5  6  1  0
  6  7  2  0
  7  8  1  0
  8  9  2  0
  9 10  1  0
  9 11  1  0
 11 12  2  0
  5 13  1  0
 13 14  1  0
 14 15  2  0
 15 16  1  0
 16 17  1  0
 16 18  2  0
 18 19  1  0
 19 20  1  0
 19 21  2  0
 21  2  1  0
 12  6  1  0
 21 14  1  0
  4 22  1  0
  7 23  1  0
  8 24  1  0
 10 25  1  0
 11 26  1  0
 12 27  1  0
 15 28  1  0
 17 29  1  0
 18 30  1  0
 20 31  1  0
M  END
>  <meeko>  (2) 
{"is_sidechain": [false], "free_energy": -8.891, "intermolecular_energy": -10.44, "internal_energy": 0.323}

$$$$
kaempferol_out
     RDKit          3D

 31 33  0  0  0  0  0  0  0  0999 V2000
   36.2950   28.2260  -18.6770 O   0  0  0  0  0  0  0  0  0  0  0  0
   36.8560   28.3440  -17.5900 C   0  0  0  0  0  0  0  0  0  0  0  0
   38.0430   27.5230  -17.2620 C   0  0  0  0  0  0  0  0  0  0  0  0
   38.4870   26.6430  -18.2330 O   0  0  0  0  0  0  0  0  0  0  0  0
   38.6280   27.6870  -16.0610 C   0  0  0  0  0  0  0  0  0  0  0  0
   39.8260   26.9340  -15.6300 C   0  0  0  0  0  0  0  0  0  0  0  0
   40.2270   26.8900  -14.2850 C   0  0  0  0  0  0  0  0  0  0  0  0
   41.3760   26.1910  -13.9020 C   0  0  0  0  0  0  0  0  0  0  0  0
   42.1350   25.5400  -14.8670 C   0  0  0  0  0  0  0  0  0  0  0  0
   43.2610   24.8480  -14.5380 O   0  0  0  0  0  0  0  0  0  0  0  0
   41.7650   25.5780  -16.2040 C   0  0  0  0  0  0  0  0  0  0  0  0
   40.6160   26.2760  -16.5860 C   0  0  0  0  0  0  0  0  0  0  0  0
   38.1870   28.5950  -15.1040 O   0  0  0  0  0  0  0  0  0  0  0  0
   37.0850   29.3650  -15.3750 C   0  0  0  0  0  0  0  0  0  0  0  0
   36.6710   30.2540  -14.3840 C   0  0  0  0  0  0  0  0  0  0  0  0
   35.5590   31.0600  -14.6070 C   0  0  0  0  0  0  0  0  0  0  0  0
   35.1880   31.9150  -13.6120 O   0  0  0  0  0  0  0  0  0  0  0  0
   34.8510   30.9940  -15.8050 C   0  0  0  0  0  0  0  0  0  0  0  0
   35.2690   30.1040  -16.7910 C   0  0  0  0  0  0  0  0  0  0  0  0
   34.5380   30.0810  -17.9480 O   0  0  0  0  0  0  0  0  0  0  0  0
   36.3860   29.2900  -16.5760 C   0  0  0  0  0  0  0  0  0  0  0  0
   38.8620   26.9710  -19.0260 H   0  0  0  0  0  0  0  0  0  0  0  0
   39.6297   27.4120  -13.5229 H   0  0  0  0  0  0  0  0  0  0  0  0
   41.6769   26.1567  -12.8445 H   0  0  0  0  0  0  0  0  0  0  0  0
   43.5970   24.1940  -15.1210 H   0  0  0  0  0  0  0  0  0  0  0  0
   42.3737   25.0607  -16.9602 H   0  0  0  0  0  0  0  0  0  0  0  0
   40.3276   26.3102  -17.6470 H   0  0  0  0  0  0  0  0  0  0  0  0
   37.2195   30.3177  -13.4327 H   0  0  0  0  0  0  0  0  0  0  0  0
   35.7360   32.6430  -13.3920 H   0  0  0  0  0  0  0  0  0  0  0  0
   33.9734   31.6364  -15.9698 H   0  0  0  0  0  0  0  0  0  0  0  0
   34.9700   30.1420  -18.7770 H   0  0  0  0  0  0  0  0  0  0  0  0
  1  2  2  0
  2  3  1  0
  3  4  1  0
  3  5  2  0
  5  6  1  0
  6  7  2  0
  7  8  1  0
  8  9  2  0
  9 10  1  0
  9 11  1  0
 11 12  2  0
  5 13  1  0
 13 14  1  0
 14 15  2  0
 15 16  1  0
 16 17  1  0
 16 18  2  0
 18 19  1  0
 19 20  1  0
 19 21  2  0
 21  2  1  0
 12  6  1  0
 21 14  1  0
  4 22  1  0
  7 23  1  0
  8 24  1  0
 10 25  1  0
 11 26  1  0
 12 27  1  0
 15 28  1  0
 17 29  1  0
 18 30  1  0
 20 31  1  0
M  END
>  <meeko>  (3) 
{"is_sidechain": [false], "free_energy": -8.712, "intermolecular_energy": -10.261, "internal_energy": 0.354}

$$$$
kaempferol_out
     RDKit          3D

 31 33  0  0  0  0  0  0  0  0999 V2000
   37.5470   26.8700  -18.3420 O   0  0  0  0  0  0  0  0  0  0  0  0
   37.3630   27.7670  -17.5220 C   0  0  0  0  0  0  0  0  0  0  0  0
   36.3740   28.8370  -17.7860 C   0  0  0  0  0  0  0  0  0  0  0  0
   35.6730   28.7660  -18.9760 O   0  0  0  0  0  0  0  0  0  0  0  0
   36.2030   29.7970  -16.8590 C   0  0  0  0  0  0  0  0  0  0  0  0
   35.2360   30.9060  -17.0060 C   0  0  0  0  0  0  0  0  0  0  0  0
   33.8550   30.7090  -16.8490 C   0  0  0  0  0  0  0  0  0  0  0  0
   32.9550   31.7660  -17.0160 C   0  0  0  0  0  0  0  0  0  0  0  0
   33.4350   33.0270  -17.3500 C   0  0  0  0  0  0  0  0  0  0  0  0
   32.5940   34.0850  -17.5220 O   0  0  0  0  0  0  0  0  0  0  0  0
   34.7950   33.2450  -17.5210 C   0  0  0  0  0  0  0  0  0  0  0  0
   35.6930   32.1880  -17.3530 C   0  0  0  0  0  0  0  0  0  0  0  0
   36.8960   29.8430  -15.6540 O   0  0  0  0  0  0  0  0  0  0  0  0
   37.8240   28.8690  -15.3830 C   0  0  0  0  0  0  0  0  0  0  0  0
   38.5040   28.9580  -14.1690 C   0  0  0  0  0  0  0  0  0  0  0  0
   39.4550   27.9960  -13.8440 C   0  0  0  0  0  0  0  0  0  0  0  0
   40.0960   28.1200  -12.6470 O   0  0  0  0  0  0  0  0  0  0  0  0
   39.7400   26.9440  -14.7110 C   0  0  0  0  0  0  0  0  0  0  0  0
   39.0590   26.8610  -15.9230 C   0  0  0  0  0  0  0  0  0  0  0  0
   39.3780   25.8070  -16.7370 O   0  0  0  0  0  0  0  0  0  0  0  0
   38.1000   27.8230  -16.2590 C   0  0  0  0  0  0  0  0  0  0  0  0
   35.2170   27.9800  -19.2040 H   0  0  0  0  0  0  0  0  0  0  0  0
   33.4756   29.7092  -16.5910 H   0  0  0  0  0  0  0  0  0  0  0  0
   31.8755   31.6009  -16.8841 H   0  0  0  0  0  0  0  0  0  0  0  0
   31.6770   33.9880  -17.3530 H   0  0  0  0  0  0  0  0  0  0  0  0
   35.1644   34.2462  -17.7878 H   0  0  0  0  0  0  0  0  0  0  0  0
   36.7700   32.3617  -17.4941 H   0  0  0  0  0  0  0  0  0  0  0  0
   38.2901   29.7828  -13.4733 H   0  0  0  0  0  0  0  0  0  0  0  0
   40.5230   28.9250  -12.4260 H   0  0  0  0  0  0  0  0  0  0  0  0
   40.4930   26.1886  -14.4421 H   0  0  0  0  0  0  0  0  0  0  0  0
   38.7430   25.4700  -17.3370 H   0  0  0  0  0  0  0  0  0  0  0  0
  1  2  2  0
  2  3  1  0
  3  4  1  0
  3  5  2  0
  5  6  1  0
  6  7  2  0
  7  8  1  0
  8  9  2  0
  9 10  1  0
  9 11  1  0
 11 12  2  0
  5 13  1  0
 13 14  1  0
 14 15  2  0
 15 16  1  0
 16 17  1  0
 16 18  2  0
 18 19  1  0
 19 20  1  0
 19 21  2  0
 21  2  1  0
 12  6  1  0
 21 14  1  0
  4 22  1  0
  7 23  1  0
  8 24  1  0
 10 25  1  0
 11 26  1  0
 12 27  1  0
 15 28  1  0
 17 29  1  0
 18 30  1  0
 20 31  1  0
M  END
>  <meeko>  (4) 
{"is_sidechain": [false], "free_energy": -8.64, "intermolecular_energy": -9.558, "internal_energy": -0.264}

$$$$
kaempferol_out
     RDKit          3D

 31 33  0  0  0  0  0  0  0  0999 V2000
   38.7890   28.6810  -13.0280 O   0  0  0  0  0  0  0  0  0  0  0  0
   39.4790   28.0180  -13.7990 C   0  0  0  0  0  0  0  0  0  0  0  0
   40.8230   27.5480  -13.3930 C   0  0  0  0  0  0  0  0  0  0  0  0
   41.2460   27.8780  -12.1180 O   0  0  0  0  0  0  0  0  0  0  0  0
   41.5440   26.8230  -14.2690 C   0  0  0  0  0  0  0  0  0  0  0  0
   42.8900   26.2900  -13.9690 C   0  0  0  0  0  0  0  0  0  0  0  0
   43.8040   26.9960  -13.1710 C   0  0  0  0  0  0  0  0  0  0  0  0
   45.0810   26.4840  -12.9190 C   0  0  0  0  0  0  0  0  0  0  0  0
   45.4510   25.2650  -13.4730 C   0  0  0  0  0  0  0  0  0  0  0  0
   46.6850   24.7290  -13.2530 O   0  0  0  0  0  0  0  0  0  0  0  0
   44.5690   24.5530  -14.2740 C   0  0  0  0  0  0  0  0  0  0  0  0
   43.2930   25.0650  -14.5250 C   0  0  0  0  0  0  0  0  0  0  0  0
   41.0960   26.4770  -15.5390 O   0  0  0  0  0  0  0  0  0  0  0  0
   39.8580   26.9030  -15.9470 C   0  0  0  0  0  0  0  0  0  0  0  0
   39.4530   26.5420  -17.2320 C   0  0  0  0  0  0  0  0  0  0  0  0
   38.2050   26.9470  -17.6970 C   0  0  0  0  0  0  0  0  0  0  0  0
   37.8480   26.5730  -18.9580 O   0  0  0  0  0  0  0  0  0  0  0  0
   37.3530   27.7080  -16.8990 C   0  0  0  0  0  0  0  0  0  0  0  0
   37.7630   28.0650  -15.6170 C   0  0  0  0  0  0  0  0  0  0  0  0
   36.8860   28.8120  -14.8770 O   0  0  0  0  0  0  0  0  0  0  0  0
   39.0150   27.6620  -15.1410 C   0  0  0  0  0  0  0  0  0  0  0  0
   42.0810   28.2830  -11.9920 H   0  0  0  0  0  0  0  0  0  0  0  0
   43.5122   27.9643  -12.7383 H   0  0  0  0  0  0  0  0  0  0  0  0
   45.7871   27.0424  -12.2868 H   0  0  0  0  0  0  0  0  0  0  0  0
   47.1320   24.8970  -12.4460 H   0  0  0  0  0  0  0  0  0  0  0  0
   44.8730   23.5897  -14.7095 H   0  0  0  0  0  0  0  0  0  0  0  0
   42.5971   24.5025  -15.1648 H   0  0  0  0  0  0  0  0  0  0  0  0
   40.1150   25.9416  -17.8733 H   0  0  0  0  0  0  0  0  0  0  0  0
   37.9660   25.6860  -19.2340 H   0  0  0  0  0  0  0  0  0  0  0  0
   36.3691   28.0227  -17.2770 H   0  0  0  0  0  0  0  0  0  0  0  0
   36.1900   28.3930  -14.4110 H   0  0  0  0  0  0  0  0  0  0  0  0
  1  2  2  0
  2  3  1  0
  3  4  1  0
  3  5  2  0
  5  6  1  0
  6  7  2  0
  7  8  1  0
  8  9  2  0
  9 10  1  0
  9 11  1  0
 11 12  2  0
  5 13  1  0
 13 14  1  0
 14 15  2  0
 15 16  1  0
 16 17  1  0
 16 18  2  0
 18 19  1  0
 19 20  1  0
 19 21  2  0
 21  2  1  0
 12  6  1  0
 21 14  1  0
  4 22  1  0
  7 23  1  0
  8 24  1  0
 10 25  1  0
 11 26  1  0
 12 27  1  0
 15 28  1  0
 17 29  1  0
 18 30  1  0
 20 31  1  0
M  END
>  <meeko>  (5) 
{"is_sidechain": [false], "free_energy": -8.626, "intermolecular_energy": -9.925, "internal_energy": 0.12}

$$$$
kaempferol_out
     RDKit          3D

 31 33  0  0  0  0  0  0  0  0999 V2000
   38.7610   28.8360  -12.9100 O   0  0  0  0  0  0  0  0  0  0  0  0
   38.3840   28.6860  -14.0700 C   0  0  0  0  0  0  0  0  0  0  0  0
   37.1910   29.4040  -14.5730 C   0  0  0  0  0  0  0  0  0  0  0  0
   36.5450   30.2470  -13.6880 O   0  0  0  0  0  0  0  0  0  0  0  0
   36.8160   29.2120  -15.8520 C   0  0  0  0  0  0  0  0  0  0  0  0
   35.6510   29.8840  -16.4670 C   0  0  0  0  0  0  0  0  0  0  0  0
   35.4080   29.8250  -17.8480 C   0  0  0  0  0  0  0  0  0  0  0  0
   34.3130   30.4870  -18.4130 C   0  0  0  0  0  0  0  0  0  0  0  0
   33.4620   31.2220  -17.5960 C   0  0  0  0  0  0  0  0  0  0  0  0
   32.3840   31.8820  -18.1040 O   0  0  0  0  0  0  0  0  0  0  0  0
   33.6870   31.3050  -16.2290 C   0  0  0  0  0  0  0  0  0  0  0  0
   34.7810   30.6410  -15.6650 C   0  0  0  0  0  0  0  0  0  0  0  0
   37.4910   28.3810  -16.7400 O   0  0  0  0  0  0  0  0  0  0  0  0
   38.5960   27.6970  -16.3020 C   0  0  0  0  0  0  0  0  0  0  0  0
   39.2360   26.8670  -17.2210 C   0  0  0  0  0  0  0  0  0  0  0  0
   40.3630   26.1500  -16.8300 C   0  0  0  0  0  0  0  0  0  0  0  0
   40.9580   25.3510  -17.7600 O   0  0  0  0  0  0  0  0  0  0  0  0
   40.8630   26.2480  -15.5340 C   0  0  0  0  0  0  0  0  0  0  0  0
   40.2200   27.0780  -14.6190 C   0  0  0  0  0  0  0  0  0  0  0  0
   40.7530   27.1370  -13.3600 O   0  0  0  0  0  0  0  0  0  0  0  0
   39.0860   27.8030  -15.0030 C   0  0  0  0  0  0  0  0  0  0  0  0
   35.6400   30.4530  -13.8150 H   0  0  0  0  0  0  0  0  0  0  0  0
   36.0876   29.2506  -18.4946 H   0  0  0  0  0  0  0  0  0  0  0  0
   34.1268   30.4264  -19.4954 H   0  0  0  0  0  0  0  0  0  0  0  0
   32.1990   32.7600  -17.8300 H   0  0  0  0  0  0  0  0  0  0  0  0
   33.0078   31.8905  -15.5919 H   0  0  0  0  0  0  0  0  0  0  0  0
   34.9620   30.7123  -14.5823 H   0  0  0  0  0  0  0  0  0  0  0  0
   38.8529   26.7793  -18.2484 H   0  0  0  0  0  0  0  0  0  0  0  0
   41.5290   24.6600  -17.4860 H   0  0  0  0  0  0  0  0  0  0  0  0
   41.7548   25.6769  -15.2366 H   0  0  0  0  0  0  0  0  0  0  0  0
   40.6910   27.9270  -12.8610 H   0  0  0  0  0  0  0  0  0  0  0  0
  1  2  2  0
  2  3  1  0
  3  4  1  0
  3  5  2  0
  5  6  1  0
  6  7  2  0
  7  8  1  0
  8  9  2  0
  9 10  1  0
  9 11  1  0
 11 12  2  0
  5 13  1  0
 13 14  1  0
 14 15  2  0
 15 16  1  0
 16 17  1  0
 16 18  2  0
 18 19  1  0
 19 20  1  0
 19 21  2  0
 21  2  1  0
 12  6  1  0
 21 14  1  0
  4 22  1  0
  7 23  1  0
  8 24  1  0
 10 25  1  0
 11 26  1  0
 12 27  1  0
 15 28  1  0
 17 29  1  0
 18 30  1  0
 20 31  1  0
M  END
>  <meeko>  (6) 
{"is_sidechain": [false], "free_energy": -8.556, "intermolecular_energy": -10.135, "internal_energy": 0.412}

$$$$
kaempferol_out
     RDKit          3D

 31 33  0  0  0  0  0  0  0  0999 V2000
   37.5410   29.8930  -13.2120 O   0  0  0  0  0  0  0  0  0  0  0  0
   37.1210   29.8000  -14.3630 C   0  0  0  0  0  0  0  0  0  0  0  0
   36.0640   30.7120  -14.8540 C   0  0  0  0  0  0  0  0  0  0  0  0
   35.5930   31.6650  -13.9690 O   0  0  0  0  0  0  0  0  0  0  0  0
   35.6350   30.5760  -16.1230 C   0  0  0  0  0  0  0  0  0  0  0  0
   34.5960   31.4380  -16.7270 C   0  0  0  0  0  0  0  0  0  0  0  0
   34.9180   32.6340  -17.3860 C   0  0  0  0  0  0  0  0  0  0  0  0
   33.9180   33.4470  -17.9290 C   0  0  0  0  0  0  0  0  0  0  0  0
   32.5870   33.0670  -17.8070 C   0  0  0  0  0  0  0  0  0  0  0  0
   31.5800   33.8280  -18.3220 O   0  0  0  0  0  0  0  0  0  0  0  0
   32.2410   31.8940  -17.1510 C   0  0  0  0  0  0  0  0  0  0  0  0
   33.2420   31.0830  -16.6090 C   0  0  0  0  0  0  0  0  0  0  0  0
   36.1350   29.6300  -17.0120 O   0  0  0  0  0  0  0  0  0  0  0  0
   37.1100   28.7660  -16.5840 C   0  0  0  0  0  0  0  0  0  0  0  0
   37.5750   27.8270  -17.5030 C   0  0  0  0  0  0  0  0  0  0  0  0
   38.5660   26.9260  -17.1230 C   0  0  0  0  0  0  0  0  0  0  0  0
   38.9920   26.0250  -18.0520 O   0  0  0  0  0  0  0  0  0  0  0  0
   39.1010   26.9470  -15.8370 C   0  0  0  0  0  0  0  0  0  0  0  0
   38.6320   27.8870  -14.9230 C   0  0  0  0  0  0  0  0  0  0  0  0
   39.1930   27.8640  -13.6740 O   0  0  0  0  0  0  0  0  0  0  0  0
   37.6370   28.7970  -15.2960 C   0  0  0  0  0  0  0  0  0  0  0  0
   35.0190   31.4140  -13.2730 H   0  0  0  0  0  0  0  0  0  0  0  0
   35.9717   32.9365  -17.4768 H   0  0  0  0  0  0  0  0  0  0  0  0
   34.1829   34.3797  -18.4485 H   0  0  0  0  0  0  0  0  0  0  0  0
   31.7600   34.6930  -18.6360 H   0  0  0  0  0  0  0  0  0  0  0  0
   31.1840   31.6039  -17.0581 H   0  0  0  0  0  0  0  0  0  0  0  0
   32.9665   30.1564  -16.0842 H   0  0  0  0  0  0  0  0  0  0  0  0
   37.1617   27.7980  -18.5220 H   0  0  0  0  0  0  0  0  0  0  0  0
   39.7930   25.5570  -17.9170 H   0  0  0  0  0  0  0  0  0  0  0  0
   39.8837   26.2304  -15.5473 H   0  0  0  0  0  0  0  0  0  0  0  0
   39.5670   27.0720  -13.3430 H   0  0  0  0  0  0  0  0  0  0  0  0
  1  2  2  0
  2  3  1  0
  3  4  1  0
  3  5  2  0
  5  6  1  0
  6  7  2  0
  7  8  1  0
  8  9  2  0
  9 10  1  0
  9 11  1  0
 11 12  2  0
  5 13  1  0
 13 14  1  0
 14 15  2  0
 15 16  1  0
 16 17  1  0
 16 18  2  0
 18 19  1  0
 19 20  1  0
 19 21  2  0
 21  2  1  0
 12  6  1  0
 21 14  1  0
  4 22  1  0
  7 23  1  0
  8 24  1  0
 10 25  1  0
 11 26  1  0
 12 27  1  0
 15 28  1  0
 17 29  1  0
 18 30  1  0
 20 31  1  0
M  END
>  <meeko>  (7) 
{"is_sidechain": [false], "free_energy": -8.178, "intermolecular_energy": -8.981, "internal_energy": -0.297}

$$$$
kaempferol_out
     RDKit          3D

 31 33  0  0  0  0  0  0  0  0999 V2000
   38.7150   26.7150  -18.4720 O   0  0  0  0  0  0  0  0  0  0  0  0
   39.0190   27.0130  -17.3190 C   0  0  0  0  0  0  0  0  0  0  0  0
   40.2550   26.4800  -16.7040 C   0  0  0  0  0  0  0  0  0  0  0  0
   41.0420   25.6550  -17.4860 O   0  0  0  0  0  0  0  0  0  0  0  0
   40.5490   26.8350  -15.4390 C   0  0  0  0  0  0  0  0  0  0  0  0
   41.7620   26.3760  -14.7280 C   0  0  0  0  0  0  0  0  0  0  0  0
   42.5310   25.2990  -15.1950 C   0  0  0  0  0  0  0  0  0  0  0  0
   43.6610   24.8660  -14.4950 C   0  0  0  0  0  0  0  0  0  0  0  0
   44.0220   25.5060  -13.3150 C   0  0  0  0  0  0  0  0  0  0  0  0
   45.1150   25.1180  -12.6010 O   0  0  0  0  0  0  0  0  0  0  0  0
   43.2720   26.5670  -12.8270 C   0  0  0  0  0  0  0  0  0  0  0  0
   42.1430   27.0000  -13.5280 C   0  0  0  0  0  0  0  0  0  0  0  0
   39.7630   27.6870  -14.6710 O   0  0  0  0  0  0  0  0  0  0  0  0
   38.6080   28.1920  -15.2110 C   0  0  0  0  0  0  0  0  0  0  0  0
   37.8430   29.0330  -14.4040 C   0  0  0  0  0  0  0  0  0  0  0  0
   36.6610   29.5740  -14.9020 C   0  0  0  0  0  0  0  0  0  0  0  0
   35.9440   30.3920  -14.0800 O   0  0  0  0  0  0  0  0  0  0  0  0
   36.2290   29.2900  -16.1950 C   0  0  0  0  0  0  0  0  0  0  0  0
   36.9960   28.4490  -16.9970 C   0  0  0  0  0  0  0  0  0  0  0  0
   36.5250   28.2030  -18.2580 O   0  0  0  0  0  0  0  0  0  0  0  0
   38.1860   27.9000  -16.5050 C   0  0  0  0  0  0  0  0  0  0  0  0
   40.7090   24.8280  -17.7760 H   0  0  0  0  0  0  0  0  0  0  0  0
   42.2405   24.7883  -16.1250 H   0  0  0  0  0  0  0  0  0  0  0  0
   44.2599   24.0253  -14.8751 H   0  0  0  0  0  0  0  0  0  0  0  0
   45.0070   24.6720  -11.7830 H   0  0  0  0  0  0  0  0  0  0  0  0
   43.5652   27.0656  -11.8914 H   0  0  0  0  0  0  0  0  0  0  0  0
   41.5469   27.8375  -13.1365 H   0  0  0  0  0  0  0  0  0  0  0  0
   38.1712   29.2675  -13.3806 H   0  0  0  0  0  0  0  0  0  0  0  0
   36.1040   31.3150  -14.0830 H   0  0  0  0  0  0  0  0  0  0  0  0
   35.2938   29.7245  -16.5779 H   0  0  0  0  0  0  0  0  0  0  0  0
   37.1050   28.2510  -18.9930 H   0  0  0  0  0  0  0  0  0  0  0  0
  1  2  2  0
  2  3  1  0
  3  4  1  0
  3  5  2  0
  5  6  1  0
  6  7  2  0
  7  8  1  0
  8  9  2  0
  9 10  1  0
  9 11  1  0
 11 12  2  0
  5 13  1  0
 13 14  1  0
 14 15  2  0
 15 16  1  0
 16 17  1  0
 16 18  2  0
 18 19  1  0
 19 20  1  0
 19 21  2  0
 21  2  1  0
 12  6  1  0
 21 14  1  0
  4 22  1  0
  7 23  1  0
  8 24  1  0
 10 25  1  0
 11 26  1  0
 12 27  1  0
 15 28  1  0
 17 29  1  0
 18 30  1  0
 20 31  1  0
M  END
>  <meeko>  (8) 
{"is_sidechain": [false], "free_energy": -8.026, "intermolecular_energy": -9.403, "internal_energy": 0.303}

$$$$
kaempferol_out
     RDKit          3D

 31 33  0  0  0  0  0  0  0  0999 V2000
   36.3700   30.6550  -13.4970 O   0  0  0  0  0  0  0  0  0  0  0  0
   36.7720   29.9270  -14.4030 C   0  0  0  0  0  0  0  0  0  0  0  0
   37.9580   29.0630  -14.2030 C   0  0  0  0  0  0  0  0  0  0  0  0
   38.5680   29.1080  -12.9630 O   0  0  0  0  0  0  0  0  0  0  0  0
   38.3620   28.2800  -15.2210 C   0  0  0  0  0  0  0  0  0  0  0  0
   39.5220   27.3680  -15.1330 C   0  0  0  0  0  0  0  0  0  0  0  0
   40.2500   27.2090  -13.9430 C   0  0  0  0  0  0  0  0  0  0  0  0
   41.3580   26.3590  -13.8880 C   0  0  0  0  0  0  0  0  0  0  0  0
   41.7490   25.6680  -15.0290 C   0  0  0  0  0  0  0  0  0  0  0  0
   42.8220   24.8290  -15.0190 O   0  0  0  0  0  0  0  0  0  0  0  0
   41.0520   25.8160  -16.2200 C   0  0  0  0  0  0  0  0  0  0  0  0
   39.9440   26.6650  -16.2740 C   0  0  0  0  0  0  0  0  0  0  0  0
   37.7240   28.2250  -16.4560 O   0  0  0  0  0  0  0  0  0  0  0  0
   36.6270   29.0190  -16.6730 C   0  0  0  0  0  0  0  0  0  0  0  0
   36.0240   28.9400  -17.9280 C   0  0  0  0  0  0  0  0  0  0  0  0
   34.9060   29.7230  -18.2020 C   0  0  0  0  0  0  0  0  0  0  0  0
   34.3470   29.6160  -19.4410 O   0  0  0  0  0  0  0  0  0  0  0  0
   34.3790   30.5850  -17.2430 C   0  0  0  0  0  0  0  0  0  0  0  0
   34.9860   30.6600  -15.9920 C   0  0  0  0  0  0  0  0  0  0  0  0
   34.4270   31.5220  -15.0880 O   0  0  0  0  0  0  0  0  0  0  0  0
   36.1090   29.8760  -15.7060 C   0  0  0  0  0  0  0  0  0  0  0  0
   39.3710   29.5790  -12.8530 H   0  0  0  0  0  0  0  0  0  0  0  0
   39.9442   27.7608  -13.0419 H   0  0  0  0  0  0  0  0  0  0  0  0
   41.9168   26.2376  -12.9483 H   0  0  0  0  0  0  0  0  0  0  0  0
   42.8690   24.1340  -14.3910 H   0  0  0  0  0  0  0  0  0  0  0  0
   41.3709   25.2668  -17.1181 H   0  0  0  0  0  0  0  0  0  0  0  0
   39.3959   26.7845  -17.2202 H   0  0  0  0  0  0  0  0  0  0  0  0
   36.4287   28.2641  -18.6957 H   0  0  0  0  0  0  0  0  0  0  0  0
   34.8810   29.7110  -20.2050 H   0  0  0  0  0  0  0  0  0  0  0  0
   33.4949   31.1985  -17.4710 H   0  0  0  0  0  0  0  0  0  0  0  0
   34.9510   32.1890  -14.6900 H   0  0  0  0  0  0  0  0  0  0  0  0
  1  2  2  0
  2  3  1  0
  3  4  1  0
  3  5  2  0
  5  6  1  0
  6  7  2  0
  7  8  1  0
  8  9  2  0
  9 10  1  0
  9 11  1  0
 11 12  2  0
  5 13  1  0
 13 14  1  0
 14 15  2  0
 15 16  1  0
 16 17  1  0
 16 18  2  0
 18 19  1  0
 19 20  1  0
 19 21  2  0
 21  2  1  0
 12  6  1  0
 21 14  1  0
  4 22  1  0
  7 23  1  0
  8 24  1  0
 10 25  1  0
 11 26  1  0
 12 27  1  0
 15 28  1  0
 17 29  1  0
 18 30  1  0
 20 31  1  0
M  END
>  <meeko>  (9) 
{"is_sidechain": [false], "free_energy": -7.228, "intermolecular_energy": -8.512, "internal_energy": 0.35}

$$$$
