selegiline_out
     RDKit          3D

 32 32  0  0  0  0  0  0  0  0999 V2000
   38.0810   27.2710  -17.6010 C   0  0  0  0  0  0  0  0  0  0  0  0
   38.4060   26.9450  -16.4910 C   0  0  0  0  0  0  0  0  0  0  0  0
   38.8030   26.5390  -15.1320 C   0  0  0  0  0  0  0  0  0  0  0  0
   39.5740   27.5940  -14.4530 N   0  0  1  0  0  0  0  0  0  0  0  0
   38.7400   28.7680  -14.1860 C   0  0  0  0  0  0  0  0  0  0  0  0
   40.2840   27.0730  -13.2550 C   0  0  2  0  0  0  0  0  0  0  0  0
   39.5020   27.2330  -11.9400 C   0  0  0  0  0  0  0  0  0  0  0  0
   41.7000   27.7020  -13.1490 C   0  0  0  0  0  0  0  0  0  0  0  0
   42.8220   26.7350  -13.4610 C   0  0  0  0  0  0  0  0  0  0  0  0
   44.0540   26.8320  -12.8000 C   0  0  0  0  0  0  0  0  0  0  0  0
   45.0820   25.9320  -13.0850 C   0  0  0  0  0  0  0  0  0  0  0  0
   44.8900   24.9290  -14.0330 C   0  0  0  0  0  0  0  0  0  0  0  0
   43.6700   24.8260  -14.6990 C   0  0  0  0  0  0  0  0  0  0  0  0
   42.6410   25.7240  -14.4160 C   0  0  0  0  0  0  0  0  0  0  0  0
   37.7835   27.5694  -18.6171 H   0  0  0  0  0  0  0  0  0  0  0  0
   37.8977   26.3248  -14.5449 H   0  0  0  0  0  0  0  0  0  0  0  0
   39.4402   25.6460  -15.2127 H   0  0  0  0  0  0  0  0  0  0  0  0
   40.3100   27.9100  -15.0840 H   0  0  0  0  0  0  0  0  0  0  0  0
   38.6407   28.9078  -13.0994 H   0  0  0  0  0  0  0  0  0  0  0  0
   39.2087   29.6591  -14.6290 H   0  0  0  0  0  0  0  0  0  0  0  0
   37.7443   28.6188  -14.6290 H   0  0  0  0  0  0  0  0  0  0  0  0
   40.3776   25.9871  -13.4033 H   0  0  0  0  0  0  0  0  0  0  0  0
   40.1842   27.0934  -11.0884 H   0  0  0  0  0  0  0  0  0  0  0  0
   39.0614   28.2399  -11.8956 H   0  0  0  0  0  0  0  0  0  0  0  0
   38.7013   26.4801  -11.8956 H   0  0  0  0  0  0  0  0  0  0  0  0
   41.7600   28.5428  -13.8558 H   0  0  0  0  0  0  0  0  0  0  0  0
   41.8322   28.0204  -12.1044 H   0  0  0  0  0  0  0  0  0  0  0  0
   44.2118   27.6226  -12.0517 H   0  0  0  0  0  0  0  0  0  0  0  0
   46.0453   26.0146  -12.5604 H   0  0  0  0  0  0  0  0  0  0  0  0
   45.7004   24.2193  -14.2555 H   0  0  0  0  0  0  0  0  0  0  0  0
   43.5185   24.0355  -15.4488 H   0  0  0  0  0  0  0  0  0  0  0  0
   41.6807   25.6387  -14.9456 H   0  0  0  0  0  0  0  0  0  0  0  0
  1  2  3  0
  2  3  1  0
  3  4  1  0
  4  5  1  0
  4  6  1  0
  6  7  1  0
  6  8  1  0
  8  9  1  0
  9 10  2  0
 10 11  1  0
 11 12  2  0
 12 13  1  0
 13 14  2  0
 14  9  1  0
  1 15  1  0
  3 16  1  0
  3 17  1  0
  4 18  1  6
  5 19  1  0
  5 20  1  0
  5 21  1  0
  6 22  1  6
  7 23  1  0
  7 24  1  0
  7 25  1  0
  8 26  1  0
  8 27  1  0
 10 28  1  0
 11 29  1  0
 12 30  1  0
 13 31  1  0
 14 32  1  0
M  CHG  1   4   1
M  END
>  <meeko>  (1) 
{"is_sidechain": [false], "free_energy": -6.877, "intermolecular_energy": -8.485, "internal_energy": -0.381}

$$$$
selegiline_out
     RDKit          3D

 32 32  0  0  0  0  0  0  0  0999 V2000
   38.1170   27.2610  -17.5680 C   0  0  0  0  0  0  0  0  0  0  0  0
   38.4390   26.9400  -16.4560 C   0  0  0  0  0  0  0  0  0  0  0  0
   38.8340   26.5390  -15.0950 C   0  0  0  0  0  0  0  0  0  0  0  0
   39.5720   27.6120  -14.4060 N   0  0  1  0  0  0  0  0  0  0  0  0
   38.7120   28.7730  -14.1660 C   0  0  0  0  0  0  0  0  0  0  0  0
   40.2620   27.1110  -13.1880 C   0  0  2  0  0  0  0  0  0  0  0  0
   39.4690   27.3130  -11.8860 C   0  0  0  0  0  0  0  0  0  0  0  0
   41.6860   27.7230  -13.0820 C   0  0  0  0  0  0  0  0  0  0  0  0
   42.7950   26.7480  -13.4140 C   0  0  0  0  0  0  0  0  0  0  0  0
   42.6470   25.8270  -14.4600 C   0  0  0  0  0  0  0  0  0  0  0  0
   43.6760   24.9350  -14.7680 C   0  0  0  0  0  0  0  0  0  0  0  0
   44.8610   24.9560  -14.0350 C   0  0  0  0  0  0  0  0  0  0  0  0
   45.0170   25.8650  -12.9910 C   0  0  0  0  0  0  0  0  0  0  0  0
   43.9900   26.7570  -12.6810 C   0  0  0  0  0  0  0  0  0  0  0  0
   37.8222   27.5549  -18.5862 H   0  0  0  0  0  0  0  0  0  0  0  0
   37.9294   26.2997  -14.5167 H   0  0  0  0  0  0  0  0  0  0  0  0
   39.4941   25.6625  -15.1726 H   0  0  0  0  0  0  0  0  0  0  0  0
   40.3170   27.9360  -15.0210 H   0  0  0  0  0  0  0  0  0  0  0  0
   38.5979   28.9271  -13.0828 H   0  0  0  0  0  0  0  0  0  0  0  0
   39.1678   29.6665  -14.6175 H   0  0  0  0  0  0  0  0  0  0  0  0
   37.7244   28.5973  -14.6175 H   0  0  0  0  0  0  0  0  0  0  0  0
   40.3419   26.0206  -13.3090 H   0  0  0  0  0  0  0  0  0  0  0  0
   40.1308   27.1444  -11.0237 H   0  0  0  0  0  0  0  0  0  0  0  0
   39.0762   28.3399  -11.8515 H   0  0  0  0  0  0  0  0  0  0  0  0
   38.6328   26.5992  -11.8515 H   0  0  0  0  0  0  0  0  0  0  0  0
   41.7512   28.5727  -13.7776 H   0  0  0  0  0  0  0  0  0  0  0  0
   41.8280   28.0257  -12.0340 H   0  0  0  0  0  0  0  0  0  0  0  0
   41.7139   25.8068  -15.0422 H   0  0  0  0  0  0  0  0  0  0  0  0
   43.5512   24.2149  -15.5901 H   0  0  0  0  0  0  0  0  0  0  0  0
   45.6726   24.2553  -14.2806 H   0  0  0  0  0  0  0  0  0  0  0  0
   45.9511   25.8795  -12.4103 H   0  0  0  0  0  0  0  0  0  0  0  0
   44.1188   27.4725  -11.8555 H   0  0  0  0  0  0  0  0  0  0  0  0
  1  2  3  0
  2  3  1  0
  3  4  1  0
  4  5  1  0
  4  6  1  0
  6  7  1  0
  6  8  1  0
  8  9  1  0
  9 10  2  0
 10 11  1  0
 11 12  2  0
 12 13  1  0
 13 14  2  0
 14  9  1  0
  1 15  1  0
  3 16  1  0
  3 17  1  0
  4 18  1  6
  5 19  1  0
  5 20  1  0
  5 21  1  0
  6 22  1  6
  7 23  1  0
  7 24  1  0
  7 25  1  0
  8 26  1  0
  8 27  1  0
 10 28  1  0
 11 29  1  0
 12 30  1  0
 13 31  1  0
 14 32  1  0
M  CHG  1   4   1
M  END
>  <meeko>  (2) 
{"is_sidechain": [false], "free_energy": -6.828, "intermolecular_energy": -8.43, "internal_energy": -0.377}

$$$$
selegiline_out
     RDKit          3D

 32 32  0  0  0  0  0  0  0  0999 V2000
   45.6130   24.3380  -13.4380 C   0  0  0  0  0  0  0  0  0  0  0  0
   45.0940   25.4160  -13.5360 C   0  0  0  0  0  0  0  0  0  0  0  0
   44.4630   26.7420  -13.6550 C   0  0  0  0  0  0  0  0  0  0  0  0
   43.1190   26.6520  -14.2510 N   0  0  1  0  0  0  0  0  0  0  0  0
   42.9180   25.3580  -14.9070 C   0  0  0  0  0  0  0  0  0  0  0  0
   42.0580   27.0020  -13.2710 C   0  0  2  0  0  0  0  0  0  0  0  0
   42.4720   26.8220  -11.8010 C   0  0  0  0  0  0  0  0  0  0  0  0
   40.7500   26.2250  -13.5880 C   0  0  0  0  0  0  0  0  0  0  0  0
   39.6940   27.0640  -14.2750 C   0  0  0  0  0  0  0  0  0  0  0  0
   39.1930   28.2220  -13.6650 C   0  0  0  0  0  0  0  0  0  0  0  0
   38.2250   28.9970  -14.3060 C   0  0  0  0  0  0  0  0  0  0  0  0
   37.7480   28.6210  -15.5600 C   0  0  0  0  0  0  0  0  0  0  0  0
   38.2370   27.4700  -16.1730 C   0  0  0  0  0  0  0  0  0  0  0  0
   39.2040   26.6930  -15.5350 C   0  0  0  0  0  0  0  0  0  0  0  0
   46.0886   23.3502  -13.3482 H   0  0  0  0  0  0  0  0  0  0  0  0
   44.3800   27.1889  -12.6533 H   0  0  0  0  0  0  0  0  0  0  0  0
   45.0895   27.3632  -14.3119 H   0  0  0  0  0  0  0  0  0  0  0  0
   43.0460   27.3550  -14.9870 H   0  0  0  0  0  0  0  0  0  0  0  0
   42.7964   24.5751  -14.1440 H   0  0  0  0  0  0  0  0  0  0  0  0
   42.0158   25.4014  -15.5349 H   0  0  0  0  0  0  0  0  0  0  0  0
   43.7908   25.1257  -15.5349 H   0  0  0  0  0  0  0  0  0  0  0  0
   41.8789   28.0810  -13.3881 H   0  0  0  0  0  0  0  0  0  0  0  0
   41.6615   27.1744  -11.1460 H   0  0  0  0  0  0  0  0  0  0  0  0
   42.6672   25.7578  -11.6027 H   0  0  0  0  0  0  0  0  0  0  0  0
   43.3834   27.4051  -11.6027 H   0  0  0  0  0  0  0  0  0  0  0  0
   40.9999   25.3772  -14.2428 H   0  0  0  0  0  0  0  0  0  0  0  0
   40.3272   25.9020  -12.6253 H   0  0  0  0  0  0  0  0  0  0  0  0
   39.5651   28.5222  -12.6743 H   0  0  0  0  0  0  0  0  0  0  0  0
   37.8384   29.9053  -13.8207 H   0  0  0  0  0  0  0  0  0  0  0  0
   36.9860   29.2326  -16.0653 H   0  0  0  0  0  0  0  0  0  0  0  0
   37.8598   27.1729  -17.1627 H   0  0  0  0  0  0  0  0  0  0  0  0
   39.5843   25.7837  -16.0235 H   0  0  0  0  0  0  0  0  0  0  0  0
  1  2  3  0
  2  3  1  0
  3  4  1  0
  4  5  1  0
  4  6  1  0
  6  7  1  0
  6  8  1  0
  8  9  1  0
  9 10  2  0
 10 11  1  0
 11 12  2  0
 12 13  1  0
 13 14  2  0
 14  9  1  0
  1 15  1  0
  3 16  1  0
  3 17  1  0
  4 18  1  6
  5 19  1  0
  5 20  1  0
  5 21  1  0
  6 22  1  1
  7 23  1  0
  7 24  1  0
  7 25  1  0
  8 26  1  0
  8 27  1  0
 10 28  1  0
 11 29  1  0
 12 30  1  0
 13 31  1  0
 14 32  1  0
M  CHG  1   4   1
M  END
>  <meeko>  (3) 
{"is_sidechain": [false], "free_energy": -6.717, "intermolecular_energy": -8.599, "internal_energy": -0.07}

$$$$
selegiline_out
     RDKit          3D

 32 32  0  0  0  0  0  0  0  0999 V2000
   45.6140   24.3070  -13.4090 C   0  0  0  0  0  0  0  0  0  0  0  0
   45.0770   25.3820  -13.4140 C   0  0  0  0  0  0  0  0  0  0  0  0
   44.4250   26.7030  -13.4180 C   0  0  0  0  0  0  0  0  0  0  0  0
   43.1610   26.6820  -14.1740 N   0  0  1  0  0  0  0  0  0  0  0  0
   43.0030   25.4210  -14.9030 C   0  0  0  0  0  0  0  0  0  0  0  0
   41.9990   27.0300  -13.3140 C   0  0  2  0  0  0  0  0  0  0  0  0
   42.2790   26.9310  -11.8050 C   0  0  0  0  0  0  0  0  0  0  0  0
   40.7570   26.1860  -13.7140 C   0  0  0  0  0  0  0  0  0  0  0  0
   39.6950   26.9750  -14.4490 C   0  0  0  0  0  0  0  0  0  0  0  0
   39.2660   26.5790  -15.7240 C   0  0  0  0  0  0  0  0  0  0  0  0
   38.2810   27.3050  -16.3940 C   0  0  0  0  0  0  0  0  0  0  0  0
   37.7150   28.4310  -15.7990 C   0  0  0  0  0  0  0  0  0  0  0  0
   38.1360   28.8340  -14.5340 C   0  0  0  0  0  0  0  0  0  0  0  0
   39.1220   28.1110  -13.8610 C   0  0  0  0  0  0  0  0  0  0  0  0
   46.1056   23.3230  -13.4044 H   0  0  0  0  0  0  0  0  0  0  0  0
   44.2151   27.0006  -12.3800 H   0  0  0  0  0  0  0  0  0  0  0  0
   45.1038   27.4200  -13.9029 H   0  0  0  0  0  0  0  0  0  0  0  0
   43.1980   27.4140  -14.8830 H   0  0  0  0  0  0  0  0  0  0  0  0
   42.8993   24.5934  -14.1858 H   0  0  0  0  0  0  0  0  0  0  0  0
   42.1044   25.4731  -15.5352 H   0  0  0  0  0  0  0  0  0  0  0  0
   43.8867   25.2498  -15.5352 H   0  0  0  0  0  0  0  0  0  0  0  0
   41.7912   28.0944  -13.4979 H   0  0  0  0  0  0  0  0  0  0  0  0
   41.3864   27.2466  -11.2450 H   0  0  0  0  0  0  0  0  0  0  0  0
   42.5260   25.8910  -11.5454 H   0  0  0  0  0  0  0  0  0  0  0  0
   43.1248   27.5846  -11.5454 H   0  0  0  0  0  0  0  0  0  0  0  0
   41.0908   25.3639  -14.3642 H   0  0  0  0  0  0  0  0  0  0  0  0
   40.3002   25.8248  -12.7808 H   0  0  0  0  0  0  0  0  0  0  0  0
   39.7087   25.6908  -16.1986 H   0  0  0  0  0  0  0  0  0  0  0  0
   37.9504   26.9880  -17.3941 H   0  0  0  0  0  0  0  0  0  0  0  0
   36.9367   29.0008  -16.3278 H   0  0  0  0  0  0  0  0  0  0  0  0
   37.6907   29.7236  -14.0646 H   0  0  0  0  0  0  0  0  0  0  0  0
   39.4515   28.4348  -12.8627 H   0  0  0  0  0  0  0  0  0  0  0  0
  1  2  3  0
  2  3  1  0
  3  4  1  0
  4  5  1  0
  4  6  1  0
  6  7  1  0
  6  8  1  0
  8  9  1  0
  9 10  2  0
 10 11  1  0
 11 12  2  0
 12 13  1  0
 13 14  2  0
 14  9  1  0
  1 15  1  0
  3 16  1  0
  3 17  1  0
  4 18  1  6
  5 19  1  0
  5 20  1  0
  5 21  1  0
  6 22  1  1
  7 23  1  0
  7 24  1  0
  7 25  1  0
  8 26  1  0
  8 27  1  0
 10 28  1  0
 11 29  1  0
 12 30  1  0
 13 31  1  0
 14 32  1  0
M  CHG  1   4   1
M  END
>  <meeko>  (4) 
{"is_sidechain": [false], "free_energy": -6.576, "intermolecular_energy": -8.397, "internal_energy": -0.098}

$$$$
selegiline_out
     RDKit          3D

 32 32  0  0  0  0  0  0  0  0999 V2000
   36.8160   29.1800  -14.9120 C   0  0  0  0  0  0  0  0  0  0  0  0
   37.8760   28.9150  -14.4130 C   0  0  0  0  0  0  0  0  0  0  0  0
   39.1760   28.5960  -13.7970 C   0  0  0  0  0  0  0  0  0  0  0  0
   39.4680   27.1540  -13.8610 N   0  0  1  0  0  0  0  0  0  0  0  0
   39.6850   26.7200  -15.2430 C   0  0  0  0  0  0  0  0  0  0  0  0
   40.5630   26.7720  -12.9300 C   0  0  2  0  0  0  0  0  0  0  0  0
   40.2050   26.9180  -11.4420 C   0  0  0  0  0  0  0  0  0  0  0  0
   41.8630   27.5490  -13.2760 C   0  0  0  0  0  0  0  0  0  0  0  0
   43.0760   26.6610  -13.4510 C   0  0  0  0  0  0  0  0  0  0  0  0
   43.0300   25.5470  -14.3000 C   0  0  0  0  0  0  0  0  0  0  0  0
   44.1540   24.7360  -14.4640 C   0  0  0  0  0  0  0  0  0  0  0  0
   45.3330   25.0300  -13.7820 C   0  0  0  0  0  0  0  0  0  0  0  0
   45.3890   26.1340  -12.9340 C   0  0  0  0  0  0  0  0  0  0  0  0
   44.2670   26.9460  -12.7680 C   0  0  0  0  0  0  0  0  0  0  0  0
   35.8453   29.4227  -15.3690 H   0  0  0  0  0  0  0  0  0  0  0  0
   39.9672   29.1442  -14.3294 H   0  0  0  0  0  0  0  0  0  0  0  0
   39.1365   28.8919  -12.7383 H   0  0  0  0  0  0  0  0  0  0  0  0
   38.6480   26.6450  -13.5320 H   0  0  0  0  0  0  0  0  0  0  0  0
   40.1769   25.7361  -15.2454 H   0  0  0  0  0  0  0  0  0  0  0  0
   38.7172   26.6473  -15.7607 H   0  0  0  0  0  0  0  0  0  0  0  0
   40.3238   27.4506  -15.7607 H   0  0  0  0  0  0  0  0  0  0  0  0
   40.7303   25.6953  -13.0806 H   0  0  0  0  0  0  0  0  0  0  0  0
   41.0491   26.5738  -10.8263 H   0  0  0  0  0  0  0  0  0  0  0  0
   39.9941   27.9740  -11.2175 H   0  0  0  0  0  0  0  0  0  0  0  0
   39.3157   26.3107  -11.2175 H   0  0  0  0  0  0  0  0  0  0  0  0
   41.6985   28.1005  -14.2135 H   0  0  0  0  0  0  0  0  0  0  0  0
   42.0736   28.2161  -12.4271 H   0  0  0  0  0  0  0  0  0  0  0  0
   42.1018   25.3102  -14.8408 H   0  0  0  0  0  0  0  0  0  0  0  0
   44.1091   23.8636  -15.1325 H   0  0  0  0  0  0  0  0  0  0  0  0
   46.2187   24.3910  -13.9130 H   0  0  0  0  0  0  0  0  0  0  0  0
   46.3193   26.3656  -12.3946 H   0  0  0  0  0  0  0  0  0  0  0  0
   44.3169   27.8159  -12.0966 H   0  0  0  0  0  0  0  0  0  0  0  0
  1  2  3  0
  2  3  1  0
  3  4  1  0
  4  5  1  0
  4  6  1  0
  6  7  1  0
  6  8  1  0
  8  9  1  0
  9 10  2  0
 10 11  1  0
 11 12  2  0
 12 13  1  0
 13 14  2  0
 14  9  1  0
  1 15  1  0
  3 16  1  0
  3 17  1  0
  4 18  1  1
  5 19  1  0
  5 20  1  0
  5 21  1  0
  6 22  1  1
  7 23  1  0
  7 24  1  0
  7 25  1  0
  8 26  1  0
  8 27  1  0
 10 28  1  0
 11 29  1  0
 12 30  1  0
 13 31  1  0
 14 32  1  0
M  CHG  1   4   1
M  END
>  <meeko>  (5) 
{"is_sidechain": [false], "free_energy": -6.215, "intermolecular_energy": -7.607, "internal_energy": -0.442}

$$$$
selegiline_out
     RDKit          3D

 32 32  0  0  0  0  0  0  0  0999 V2000
   36.8300   29.2790  -14.7640 C   0  0  0  0  0  0  0  0  0  0  0  0
   37.8880   28.8390  -14.4030 C   0  0  0  0  0  0  0  0  0  0  0  0
   39.1860   28.3040  -13.9550 C   0  0  0  0  0  0  0  0  0  0  0  0
   39.3190   26.8710  -14.2650 N   0  0  1  0  0  0  0  0  0  0  0  0
   39.0920   26.6160  -15.6890 C   0  0  0  0  0  0  0  0  0  0  0  0
   40.5950   26.3120  -13.7480 C   0  0  2  0  0  0  0  0  0  0  0  0
   40.9930   26.8290  -12.3560 C   0  0  0  0  0  0  0  0  0  0  0  0
   41.7380   26.5300  -14.7780 C   0  0  0  0  0  0  0  0  0  0  0  0
   43.1170   26.2260  -14.2330 C   0  0  0  0  0  0  0  0  0  0  0  0
   43.8590   27.2160  -13.5750 C   0  0  0  0  0  0  0  0  0  0  0  0
   45.1270   26.9290  -13.0660 C   0  0  0  0  0  0  0  0  0  0  0  0
   45.6640   25.6510  -13.2100 C   0  0  0  0  0  0  0  0  0  0  0  0
   44.9360   24.6600  -13.8660 C   0  0  0  0  0  0  0  0  0  0  0  0
   43.6690   24.9450  -14.3750 C   0  0  0  0  0  0  0  0  0  0  0  0
   35.8613   29.6819  -15.0945 H   0  0  0  0  0  0  0  0  0  0  0  0
   39.9927   28.8548  -14.4609 H   0  0  0  0  0  0  0  0  0  0  0  0
   39.2500   28.4268  -12.8637 H   0  0  0  0  0  0  0  0  0  0  0  0
   38.5850   26.3650  -13.7690 H   0  0  0  0  0  0  0  0  0  0  0  0
   38.3646   25.7989  -15.8038 H   0  0  0  0  0  0  0  0  0  0  0  0
   38.6996   27.5260  -16.1665 H   0  0  0  0  0  0  0  0  0  0  0  0
   40.0413   26.3316  -16.1665 H   0  0  0  0  0  0  0  0  0  0  0  0
   40.4234   25.2336  -13.6149 H   0  0  0  0  0  0  0  0  0  0  0  0
   40.5151   26.2082  -11.5838 H   0  0  0  0  0  0  0  0  0  0  0  0
   42.0860   26.7765  -12.2441 H   0  0  0  0  0  0  0  0  0  0  0  0
   40.6627   27.8722  -12.2441 H   0  0  0  0  0  0  0  0  0  0  0  0
   41.5549   25.8757  -15.6431 H   0  0  0  0  0  0  0  0  0  0  0  0
   41.7277   27.5964  -15.0474 H   0  0  0  0  0  0  0  0  0  0  0  0
   43.4396   28.2262  -13.4587 H   0  0  0  0  0  0  0  0  0  0  0  0
   45.7026   27.7122  -12.5509 H   0  0  0  0  0  0  0  0  0  0  0  0
   46.6618   25.4246  -12.8061 H   0  0  0  0  0  0  0  0  0  0  0  0
   45.3610   23.6521  -13.9825 H   0  0  0  0  0  0  0  0  0  0  0  0
   43.0987   24.1590  -14.8916 H   0  0  0  0  0  0  0  0  0  0  0  0
  1  2  3  0
  2  3  1  0
  3  4  1  0
  4  5  1  0
  4  6  1  0
  6  7  1  0
  6  8  1  0
  8  9  1  0
  9 10  2  0
 10 11  1  0
 11 12  2  0
 12 13  1  0
 13 14  2  0
 14  9  1  0
  1 15  1  0
  3 16  1  0
  3 17  1  0
  4 18  1  1
  5 19  1  0
  5 20  1  0
  5 21  1  0
  6 22  1  1
  7 23  1  0
  7 24  1  0
  7 25  1  0
  8 26  1  0
  8 27  1  0
 10 28  1  0
 11 29  1  0
 12 30  1  0
 13 31  1  0
 14 32  1  0
M  CHG  1   4   1
M  END
>  <meeko>  (6) 
{"is_sidechain": [false], "free_energy": -6.194, "intermolecular_energy": -7.963, "internal_energy": -0.061}

$$$$
selegiline_out
     RDKit          3D

 32 32  0  0  0  0  0  0  0  0999 V2000
   42.3040   26.7700  -11.3060 C   0  0  0  0  0  0  0  0  0  0  0  0
   42.9560   26.9530  -12.2980 C   0  0  0  0  0  0  0  0  0  0  0  0
   43.7600   27.1820  -13.5110 C   0  0  0  0  0  0  0  0  0  0  0  0
   43.5700   26.1070  -14.4990 N   0  0  1  0  0  0  0  0  0  0  0  0
   44.6110   25.0840  -14.3720 C   0  0  0  0  0  0  0  0  0  0  0  0
   42.1860   25.5670  -14.4660 C   0  0  2  0  0  0  0  0  0  0  0  0
   42.1090   24.0350  -14.3610 C   0  0  0  0  0  0  0  0  0  0  0  0
   41.3700   26.0900  -15.6800 C   0  0  0  0  0  0  0  0  0  0  0  0
   40.1790   26.9400  -15.2940 C   0  0  0  0  0  0  0  0  0  0  0  0
   39.1200   27.1360  -16.1910 C   0  0  0  0  0  0  0  0  0  0  0  0
   38.0200   27.9130  -15.8280 C   0  0  0  0  0  0  0  0  0  0  0  0
   37.9670   28.5020  -14.5660 C   0  0  0  0  0  0  0  0  0  0  0  0
   39.0160   28.3170  -13.6680 C   0  0  0  0  0  0  0  0  0  0  0  0
   40.1170   27.5400  -14.0290 C   0  0  0  0  0  0  0  0  0  0  0  0
   41.7069   26.6024  -10.3975 H   0  0  0  0  0  0  0  0  0  0  0  0
   43.4597   28.1390  -13.9627 H   0  0  0  0  0  0  0  0  0  0  0  0
   44.8212   27.1995  -13.2218 H   0  0  0  0  0  0  0  0  0  0  0  0
   43.6790   26.5050  -15.4320 H   0  0  0  0  0  0  0  0  0  0  0  0
   44.8074   24.8910  -13.3070 H   0  0  0  0  0  0  0  0  0  0  0  0
   44.2741   24.1559  -14.8568 H   0  0  0  0  0  0  0  0  0  0  0  0
   45.5331   25.4371  -14.8568 H   0  0  0  0  0  0  0  0  0  0  0  0
   41.7354   25.9421  -13.5352 H   0  0  0  0  0  0  0  0  0  0  0  0
   42.0942   23.7404  -13.3013 H   0  0  0  0  0  0  0  0  0  0  0  0
   41.1918   23.6794  -14.8533 H   0  0  0  0  0  0  0  0  0  0  0  0
   42.9859   23.5892  -14.8533 H   0  0  0  0  0  0  0  0  0  0  0  0
   42.0373   26.6944  -16.3121 H   0  0  0  0  0  0  0  0  0  0  0  0
   40.9771   25.2076  -16.2063 H   0  0  0  0  0  0  0  0  0  0  0  0
   39.1566   26.6737  -17.1885 H   0  0  0  0  0  0  0  0  0  0  0  0
   37.1934   28.0611  -16.5386 H   0  0  0  0  0  0  0  0  0  0  0  0
   37.0979   29.1123  -14.2793 H   0  0  0  0  0  0  0  0  0  0  0  0
   38.9761   28.7842  -12.6730 H   0  0  0  0  0  0  0  0  0  0  0  0
   40.9422   27.3973  -13.3158 H   0  0  0  0  0  0  0  0  0  0  0  0
  1  2  3  0
  2  3  1  0
  3  4  1  0
  4  5  1  0
  4  6  1  0
  6  7  1  0
  6  8  1  0
  8  9  1  0
  9 10  2  0
 10 11  1  0
 11 12  2  0
 12 13  1  0
 13 14  2  0
 14  9  1  0
  1 15  1  0
  3 16  1  0
  3 17  1  0
  4 18  1  6
  5 19  1  0
  5 20  1  0
  5 21  1  0
  6 22  1  1
  7 23  1  0
  7 24  1  0
  7 25  1  0
  8 26  1  0
  8 27  1  0
 10 28  1  0
 11 29  1  0
 12 30  1  0
 13 31  1  0
 14 32  1  0
M  CHG  1   4   1
M  END
>  <meeko>  (7) 
{"is_sidechain": [false], "free_energy": -3.951, "intermolecular_energy": -4.747, "internal_energy": -0.51}

$$$$
selegiline_out
     RDKit          3D

 32 32  0  0  0  0  0  0  0  0999 V2000
   47.6050   27.1860  -13.0200 C   0  0  0  0  0  0  0  0  0  0  0  0
   46.4830   26.7960  -12.8420 C   0  0  0  0  0  0  0  0  0  0  0  0
   45.1070   26.3190  -12.6160 C   0  0  0  0  0  0  0  0  0  0  0  0
   44.3090   26.3570  -13.8530 N   0  0  1  0  0  0  0  0  0  0  0  0
   44.2860   25.0460  -14.5060 C   0  0  0  0  0  0  0  0  0  0  0  0
   42.9610   26.9390  -13.6210 C   0  0  2  0  0  0  0  0  0  0  0  0
   42.5820   27.0800  -12.1380 C   0  0  0  0  0  0  0  0  0  0  0  0
   41.8840   26.1400  -14.4060 C   0  0  0  0  0  0  0  0  0  0  0  0
   40.5680   26.8720  -14.5520 C   0  0  0  0  0  0  0  0  0  0  0  0
   40.1050   27.7190  -13.5360 C   0  0  0  0  0  0  0  0  0  0  0  0
   38.8940   28.3990  -13.6790 C   0  0  0  0  0  0  0  0  0  0  0  0
   38.1350   28.2380  -14.8370 C   0  0  0  0  0  0  0  0  0  0  0  0
   38.5850   27.3950  -15.8510 C   0  0  0  0  0  0  0  0  0  0  0  0
   39.7950   26.7150  -15.7110 C   0  0  0  0  0  0  0  0  0  0  0  0
   48.6325   27.5432  -13.1830 H   0  0  0  0  0  0  0  0  0  0  0  0
   45.1445   25.2833  -12.2473 H   0  0  0  0  0  0  0  0  0  0  0  0
   44.6302   26.9820  -11.8790 H   0  0  0  0  0  0  0  0  0  0  0  0
   44.7650   26.9900  -14.5100 H   0  0  0  0  0  0  0  0  0  0  0  0
   44.2721   24.2556  -13.7411 H   0  0  0  0  0  0  0  0  0  0  0  0
   43.3863   24.9647  -15.1336 H   0  0  0  0  0  0  0  0  0  0  0  0
   45.1823   24.9332  -15.1336 H   0  0  0  0  0  0  0  0  0  0  0  0
   43.0025   27.9689  -14.0050 H   0  0  0  0  0  0  0  0  0  0  0  0
   43.4294   26.7648  -11.5114 H   0  0  0  0  0  0  0  0  0  0  0  0
   42.3359   28.1299  -11.9207 H   0  0  0  0  0  0  0  0  0  0  0  0
   41.7095   26.4463  -11.9207 H   0  0  0  0  0  0  0  0  0  0  0  0
   42.2752   25.9256  -15.4115 H   0  0  0  0  0  0  0  0  0  0  0  0
   41.6801   25.2251  -13.8303 H   0  0  0  0  0  0  0  0  0  0  0  0
   40.6996   27.8489  -12.6198 H   0  0  0  0  0  0  0  0  0  0  0  0
   38.5385   29.0625  -12.8769 H   0  0  0  0  0  0  0  0  0  0  0  0
   37.1821   28.7757  -14.9501 H   0  0  0  0  0  0  0  0  0  0  0  0
   37.9850   27.2654  -16.7638 H   0  0  0  0  0  0  0  0  0  0  0  0
   40.1449   26.0512  -16.5153 H   0  0  0  0  0  0  0  0  0  0  0  0
  1  2  3  0
  2  3  1  0
  3  4  1  0
  4  5  1  0
  4  6  1  0
  6  7  1  0
  6  8  1  0
  8  9  1  0
  9 10  2  0
 10 11  1  0
 11 12  2  0
 12 13  1  0
 13 14  2  0
 14  9  1  0
  1 15  1  0
  3 16  1  0
  3 17  1  0
  4 18  1  6
  5 19  1  0
  5 20  1  0
  5 21  1  0
  6 22  1  6
  7 23  1  0
  7 24  1  0
  7 25  1  0
  8 26  1  0
  8 27  1  0
 10 28  1  0
 11 29  1  0
 12 30  1  0
 13 31  1  0
 14 32  1  0
M  CHG  1   4   1
M  END
>  <meeko>  (8) 
{"is_sidechain": [false], "free_energy": -3.911, "intermolecular_energy": -5.485, "internal_energy": 0.277}

$$$$
