selegiline_out
     RDKit          3D

 32 32  0  0  0  0  0  0  0  0999 V2000
   32.3370   29.6840  -12.0970 C   0  0  0  0  0  0  0  0  0  0  0  0
   33.2030   30.2910  -12.6660 C   0  0  0  0  0  0  0  0  0  0  0  0
   34.2690   31.0370  -13.3570 C   0  0  0  0  0  0  0  0  0  0  0  0
   34.4320   30.5850  -14.7490 N   0  0  1  0  0  0  0  0  0  0  0  0
   33.3700   31.1190  -15.6050 C   0  0  0  0  0  0  0  0  0  0  0  0
   35.8040   30.8490  -15.2570 C   0  0  2  0  0  0  0  0  0  0  0  0
   36.1190   32.3380  -15.4800 C   0  0  0  0  0  0  0  0  0  0  0  0
   36.0770   30.0170  -16.5400 C   0  0  0  0  0  0  0  0  0  0  0  0
   37.1080   28.9250  -16.3510 C   0  0  0  0  0  0  0  0  0  0  0  0
   37.7170   28.7250  -15.1040 C   0  0  0  0  0  0  0  0  0  0  0  0
   38.6600   27.7110  -14.9330 C   0  0  0  0  0  0  0  0  0  0  0  0
   39.0040   26.8880  -16.0040 C   0  0  0  0  0  0  0  0  0  0  0  0
   38.4070   27.0800  -17.2480 C   0  0  0  0  0  0  0  0  0  0  0  0
   37.4640   28.0930  -17.4220 C   0  0  0  0  0  0  0  0  0  0  0  0
   31.5438   29.1280  -11.5758 H   0  0  0  0  0  0  0  0  0  0  0  0
   34.0138   32.1070  -13.3567 H   0  0  0  0  0  0  0  0  0  0  0  0
   35.2147   30.8586  -12.8243 H   0  0  0  0  0  0  0  0  0  0  0  0
   34.3290   29.5710  -14.7730 H   0  0  0  0  0  0  0  0  0  0  0  0
   32.5627   31.5249  -14.9777 H   0  0  0  0  0  0  0  0  0  0  0  0
   33.7784   31.9190  -16.2401 H   0  0  0  0  0  0  0  0  0  0  0  0
   32.9714   30.3141  -16.2401 H   0  0  0  0  0  0  0  0  0  0  0  0
   36.4906   30.5264  -14.4604 H   0  0  0  0  0  0  0  0  0  0  0  0
   36.2252   32.8400  -14.5070 H   0  0  0  0  0  0  0  0  0  0  0  0
   37.0572   32.4335  -16.0462 H   0  0  0  0  0  0  0  0  0  0  0  0
   35.2998   32.8053  -16.0462 H   0  0  0  0  0  0  0  0  0  0  0  0
   35.1329   29.5514  -16.8590 H   0  0  0  0  0  0  0  0  0  0  0  0
   36.4791   30.7110  -17.2928 H   0  0  0  0  0  0  0  0  0  0  0  0
   37.4497   29.3716  -14.2552 H   0  0  0  0  0  0  0  0  0  0  0  0
   39.1328   27.5608  -13.9512 H   0  0  0  0  0  0  0  0  0  0  0  0
   39.7461   26.0877  -15.8671 H   0  0  0  0  0  0  0  0  0  0  0  0
   38.6796   26.4320  -18.0940 H   0  0  0  0  0  0  0  0  0  0  0  0
   36.9962   28.2402  -18.4066 H   0  0  0  0  0  0  0  0  0  0  0  0
  1  2  3  0
  2  3  1  0
  3  4  1  0
  4  5  1  0
  4  6  1  0
  6  7  1  0
  6  8  1  0
  8  9  1  0
  9 10  2  0
 10 11  1  0
 11 12  2  0
 12 13  1  0
 13 14  2  0
 14  9  1  0
  1 15  1  0
  3 16  1  0
  3 17  1  0
  4 18  1  1
  5 19  1  0
  5 20  1  0
  5 21  1  0
  6 22  1  1
  7 23  1  0
  7 24  1  0
  7 25  1  0
  8 26  1  0
  8 27  1  0
 10 28  1  0
 11 29  1  0
 12 30  1  0
 13 31  1  0
 14 32  1  0
M  CHG  1   4   1
M  END
>  <meeko>  (1) 
{"is_sidechain": [false], "free_energy": -7.36, "intermolecular_energy": -9.081, "internal_energy": -0.367}

$$$$
selegiline_out
     RDKit          3D

 32 32  0  0  0  0  0  0  0  0999 V2000
   32.4050   29.6920  -12.1210 C   0  0  0  0  0  0  0  0  0  0  0  0
   33.2600   30.3040  -12.7020 C   0  0  0  0  0  0  0  0  0  0  0  0
   34.3120   31.0560  -13.4090 C   0  0  0  0  0  0  0  0  0  0  0  0
   34.4420   30.6210  -14.8100 N   0  0  1  0  0  0  0  0  0  0  0  0
   33.3590   31.1640  -15.6330 C   0  0  0  0  0  0  0  0  0  0  0  0
   35.8010   30.8930  -15.3470 C   0  0  2  0  0  0  0  0  0  0  0  0
   36.0730   32.3740  -15.6570 C   0  0  0  0  0  0  0  0  0  0  0  0
   36.0840   29.9960  -16.5840 C   0  0  0  0  0  0  0  0  0  0  0  0
   37.1270   28.9280  -16.3370 C   0  0  0  0  0  0  0  0  0  0  0  0
   37.4920   28.0370  -17.3550 C   0  0  0  0  0  0  0  0  0  0  0  0
   38.4610   27.0590  -17.1250 C   0  0  0  0  0  0  0  0  0  0  0  0
   39.0730   26.9610  -15.8770 C   0  0  0  0  0  0  0  0  0  0  0  0
   38.7150   27.8400  -14.8570 C   0  0  0  0  0  0  0  0  0  0  0  0
   37.7470   28.8180  -15.0840 C   0  0  0  0  0  0  0  0  0  0  0  0
   31.6221   29.1316  -11.5890 H   0  0  0  0  0  0  0  0  0  0  0  0
   34.0596   32.1265  -13.3897 H   0  0  0  0  0  0  0  0  0  0  0  0
   35.2693   30.8684  -12.9006 H   0  0  0  0  0  0  0  0  0  0  0  0
   34.3390   29.6080  -14.8430 H   0  0  0  0  0  0  0  0  0  0  0  0
   32.5669   31.5611  -14.9812 H   0  0  0  0  0  0  0  0  0  0  0  0
   33.7509   31.9722  -16.2680 H   0  0  0  0  0  0  0  0  0  0  0  0
   32.9458   30.3665  -16.2680 H   0  0  0  0  0  0  0  0  0  0  0  0
   36.5042   30.6358  -14.5411 H   0  0  0  0  0  0  0  0  0  0  0  0
   36.1757   32.9329  -14.7151 H   0  0  0  0  0  0  0  0  0  0  0  0
   37.0024   32.4621  -16.2388 H   0  0  0  0  0  0  0  0  0  0  0  0
   35.2356   32.7866  -16.2388 H   0  0  0  0  0  0  0  0  0  0  0  0
   35.1453   29.5031  -16.8772 H   0  0  0  0  0  0  0  0  0  0  0  0
   36.4783   30.6530  -17.3732 H   0  0  0  0  0  0  0  0  0  0  0  0
   37.0117   28.1087  -18.3420 H   0  0  0  0  0  0  0  0  0  0  0  0
   38.7420   26.3644  -17.9304 H   0  0  0  0  0  0  0  0  0  0  0  0
   39.8376   26.1908  -15.6974 H   0  0  0  0  0  0  0  0  0  0  0  0
   39.1966   27.7625  -13.8711 H   0  0  0  0  0  0  0  0  0  0  0  0
   37.4678   29.5082  -14.2742 H   0  0  0  0  0  0  0  0  0  0  0  0
  1  2  3  0
  2  3  1  0
  3  4  1  0
  4  5  1  0
  4  6  1  0
  6  7  1  0
  6  8  1  0
  8  9  1  0
  9 10  2  0
 10 11  1  0
 11 12  2  0
 12 13  1  0
 13 14  2  0
 14  9  1  0
  1 15  1  0
  3 16  1  0
  3 17  1  0
  4 18  1  1
  5 19  1  0
  5 20  1  0
  5 21  1  0
  6 22  1  1
  7 23  1  0
  7 24  1  0
  7 25  1  0
  8 26  1  0
  8 27  1  0
 10 28  1  0
 11 29  1  0
 12 30  1  0
 13 31  1  0
 14 32  1  0
M  CHG  1   4   1
M  END
>  <meeko>  (2) 
{"is_sidechain": [false], "free_energy": -7.347, "intermolecular_energy": -9.064, "internal_energy": -0.368}

$$$$
selegiline_out
     RDKit          3D

 32 32  0  0  0  0  0  0  0  0999 V2000
   35.2550   30.4680  -14.4100 C   0  0  0  0  0  0  0  0  0  0  0  0
   36.3040   29.9150  -14.6060 C   0  0  0  0  0  0  0  0  0  0  0  0
   37.5920   29.2400  -14.8390 C   0  0  0  0  0  0  0  0  0  0  0  0
   37.4910   28.2300  -15.9060 N   0  0  1  0  0  0  0  0  0  0  0  0
   37.0890   28.8430  -17.1750 C   0  0  0  0  0  0  0  0  0  0  0  0
   38.7220   27.4030  -16.0000 C   0  0  2  0  0  0  0  0  0  0  0  0
   38.8540   26.6160  -17.3140 C   0  0  0  0  0  0  0  0  0  0  0  0
   38.8390   26.4640  -14.7670 C   0  0  0  0  0  0  0  0  0  0  0  0
   40.1340   26.6250  -13.9990 C   0  0  0  0  0  0  0  0  0  0  0  0
   41.3650   26.3540  -14.6110 C   0  0  0  0  0  0  0  0  0  0  0  0
   42.5570   26.5110  -13.9020 C   0  0  0  0  0  0  0  0  0  0  0  0
   42.5290   26.9400  -12.5760 C   0  0  0  0  0  0  0  0  0  0  0  0
   41.3100   27.2090  -11.9580 C   0  0  0  0  0  0  0  0  0  0  0  0
   40.1170   27.0520  -12.6640 C   0  0  0  0  0  0  0  0  0  0  0  0
   34.2950   30.9741  -14.2306 H   0  0  0  0  0  0  0  0  0  0  0  0
   38.3412   29.9914  -15.1288 H   0  0  0  0  0  0  0  0  0  0  0  0
   37.8854   28.7298  -13.9097 H   0  0  0  0  0  0  0  0  0  0  0  0
   36.7470   27.5770  -15.6610 H   0  0  0  0  0  0  0  0  0  0  0  0
   36.4960   29.7473  -16.9737 H   0  0  0  0  0  0  0  0  0  0  0  0
   37.9857   29.1134  -17.7519 H   0  0  0  0  0  0  0  0  0  0  0  0
   36.4836   28.1284  -17.7519 H   0  0  0  0  0  0  0  0  0  0  0  0
   39.5649   28.1098  -16.0023 H   0  0  0  0  0  0  0  0  0  0  0  0
   39.0321   25.5541  -17.0891 H   0  0  0  0  0  0  0  0  0  0  0  0
   37.9264   26.7168  -17.8966 H   0  0  0  0  0  0  0  0  0  0  0  0
   39.6979   27.0140  -17.8966 H   0  0  0  0  0  0  0  0  0  0  0  0
   38.0025   26.6794  -14.0860 H   0  0  0  0  0  0  0  0  0  0  0  0
   38.8168   25.4317  -15.1463 H   0  0  0  0  0  0  0  0  0  0  0  0
   41.3922   26.0153  -15.6572 H   0  0  0  0  0  0  0  0  0  0  0  0
   43.5191   26.2961  -14.3899 H   0  0  0  0  0  0  0  0  0  0  0  0
   43.4687   27.0660  -12.0182 H   0  0  0  0  0  0  0  0  0  0  0  0
   41.2879   27.5459  -10.9111 H   0  0  0  0  0  0  0  0  0  0  0  0
   39.1574   27.2645  -12.1701 H   0  0  0  0  0  0  0  0  0  0  0  0
  1  2  3  0
  2  3  1  0
  3  4  1  0
  4  5  1  0
  4  6  1  0
  6  7  1  0
  6  8  1  0
  8  9  1  0
  9 10  2  0
 10 11  1  0
 11 12  2  0
 12 13  1  0
 13 14  2  0
 14  9  1  0
  1 15  1  0
  3 16  1  0
  3 17  1  0
  4 18  1  1
  5 19  1  0
  5 20  1  0
  5 21  1  0
  6 22  1  1
  7 23  1  0
  7 24  1  0
  7 25  1  0
  8 26  1  0
  8 27  1  0
 10 28  1  0
 11 29  1  0
 12 30  1  0
 13 31  1  0
 14 32  1  0
M  CHG  1   4   1
M  END
>  <meeko>  (3) 
{"is_sidechain": [false], "free_energy": -7.232, "intermolecular_energy": -8.894, "internal_energy": -0.396}

$$$$
selegiline_out
     RDKit          3D

 32 32  0  0  0  0  0  0  0  0999 V2000
   35.2700   31.5450  -13.0210 C   0  0  0  0  0  0  0  0  0  0  0  0
   34.9480   31.2710  -14.1460 C   0  0  0  0  0  0  0  0  0  0  0  0
   34.5460   30.9340  -15.5230 C   0  0  0  0  0  0  0  0  0  0  0  0
   35.4720   31.5060  -16.5140 N   0  0  1  0  0  0  0  0  0  0  0  0
   35.3680   32.9660  -16.5540 C   0  0  0  0  0  0  0  0  0  0  0  0
   36.8590   31.0060  -16.3240 C   0  0  2  0  0  0  0  0  0  0  0  0
   37.9300   31.8120  -17.0780 C   0  0  0  0  0  0  0  0  0  0  0  0
   36.9430   29.4940  -16.6720 C   0  0  0  0  0  0  0  0  0  0  0  0
   37.8400   28.7030  -15.7450 C   0  0  0  0  0  0  0  0  0  0  0  0
   38.3160   27.4380  -16.1170 C   0  0  0  0  0  0  0  0  0  0  0  0
   39.1500   26.7160  -15.2620 C   0  0  0  0  0  0  0  0  0  0  0  0
   39.5150   27.2500  -14.0280 C   0  0  0  0  0  0  0  0  0  0  0  0
   39.0450   28.5050  -13.6460 C   0  0  0  0  0  0  0  0  0  0  0  0
   38.2110   29.2290  -14.4990 C   0  0  0  0  0  0  0  0  0  0  0  0
   35.5647   31.7958  -11.9913 H   0  0  0  0  0  0  0  0  0  0  0  0
   34.5359   29.8397  -15.6341 H   0  0  0  0  0  0  0  0  0  0  0  0
   33.5465   31.3567  -15.7025 H   0  0  0  0  0  0  0  0  0  0  0  0
   35.1950   31.1790  -17.4390 H   0  0  0  0  0  0  0  0  0  0  0  0
   35.3399   33.3599  -15.5273 H   0  0  0  0  0  0  0  0  0  0  0  0
   36.2388   33.3813  -17.0824 H   0  0  0  0  0  0  0  0  0  0  0  0
   34.4471   33.2537  -17.0824 H   0  0  0  0  0  0  0  0  0  0  0  0
   37.0901   31.1486  -15.2581 H   0  0  0  0  0  0  0  0  0  0  0  0
   38.5916   32.3099  -16.3539 H   0  0  0  0  0  0  0  0  0  0  0  0
   38.5223   31.1337  -17.7097 H   0  0  0  0  0  0  0  0  0  0  0  0
   37.4421   32.5689  -17.7097 H   0  0  0  0  0  0  0  0  0  0  0  0
   35.9296   29.0693  -16.6199 H   0  0  0  0  0  0  0  0  0  0  0  0
   37.3789   29.4208  -17.6793 H   0  0  0  0  0  0  0  0  0  0  0  0
   38.0301   27.0114  -17.0898 H   0  0  0  0  0  0  0  0  0  0  0  0
   39.5195   25.7245  -15.5627 H   0  0  0  0  0  0  0  0  0  0  0  0
   40.1739   26.6812  -13.3555 H   0  0  0  0  0  0  0  0  0  0  0  0
   39.3318   28.9255  -12.6708 H   0  0  0  0  0  0  0  0  0  0  0  0
   37.8421   30.2188  -14.1921 H   0  0  0  0  0  0  0  0  0  0  0  0
  1  2  3  0
  2  3  1  0
  3  4  1  0
  4  5  1  0
  4  6  1  0
  6  7  1  0
  6  8  1  0
  8  9  1  0
  9 10  2  0
 10 11  1  0
 11 12  2  0
 12 13  1  0
 13 14  2  0
 14  9  1  0
  1 15  1  0
  3 16  1  0
  3 17  1  0
  4 18  1  6
  5 19  1  0
  5 20  1  0
  5 21  1  0
  6 22  1  1
  7 23  1  0
  7 24  1  0
  7 25  1  0
  8 26  1  0
  8 27  1  0
 10 28  1  0
 11 29  1  0
 12 30  1  0
 13 31  1  0
 14 32  1  0
M  CHG  1   4   1
M  END
>  <meeko>  (4) 
{"is_sidechain": [false], "free_energy": -7.204, "intermolecular_energy": -8.497, "internal_energy": -0.759}

$$$$
selegiline_out
     RDKit          3D

 32 32  0  0  0  0  0  0  0  0999 V2000
   45.4540   26.1500  -13.4240 C   0  0  0  0  0  0  0  0  0  0  0  0
   44.3420   26.4590  -13.0890 C   0  0  0  0  0  0  0  0  0  0  0  0
   42.9820   26.8400  -12.6720 C   0  0  0  0  0  0  0  0  0  0  0  0
   42.0680   26.9380  -13.8230 N   0  0  1  0  0  0  0  0  0  0  0  0
   42.1330   25.7310  -14.6520 C   0  0  0  0  0  0  0  0  0  0  0  0
   40.6910   27.3080  -13.4040 C   0  0  2  0  0  0  0  0  0  0  0  0
   40.4050   27.0820  -11.9100 C   0  0  0  0  0  0  0  0  0  0  0  0
   39.6420   26.5890  -14.2950 C   0  0  0  0  0  0  0  0  0  0  0  0
   38.7770   27.5330  -15.1030 C   0  0  0  0  0  0  0  0  0  0  0  0
   38.3510   28.7530  -14.5600 C   0  0  0  0  0  0  0  0  0  0  0  0
   37.5610   29.6240  -15.3120 C   0  0  0  0  0  0  0  0  0  0  0  0
   37.1900   29.2850  -16.6120 C   0  0  0  0  0  0  0  0  0  0  0  0
   37.6060   28.0730  -17.1590 C   0  0  0  0  0  0  0  0  0  0  0  0
   38.3950   27.2000  -16.4100 C   0  0  0  0  0  0  0  0  0  0  0  0
   46.4718   25.8672  -13.7306 H   0  0  0  0  0  0  0  0  0  0  0  0
   42.5971   26.0815  -11.9744 H   0  0  0  0  0  0  0  0  0  0  0  0
   43.0345   27.8274  -12.1900 H   0  0  0  0  0  0  0  0  0  0  0  0
   42.3820   27.7040  -14.4190 H   0  0  0  0  0  0  0  0  0  0  0  0
   42.1808   24.8433  -14.0041 H   0  0  0  0  0  0  0  0  0  0  0  0
   41.2366   25.6736  -15.2870 H   0  0  0  0  0  0  0  0  0  0  0  0
   43.0303   25.7702  -15.2870 H   0  0  0  0  0  0  0  0  0  0  0  0
   40.6087   28.3951  -13.5505 H   0  0  0  0  0  0  0  0  0  0  0  0
   41.1273   27.6528  -11.3080 H   0  0  0  0  0  0  0  0  0  0  0  0
   39.3847   27.4205  -11.6767 H   0  0  0  0  0  0  0  0  0  0  0  0
   40.4984   26.0111  -11.6767 H   0  0  0  0  0  0  0  0  0  0  0  0
   40.1751   25.9251  -14.9915 H   0  0  0  0  0  0  0  0  0  0  0  0
   38.9709   26.0386  -13.6192 H   0  0  0  0  0  0  0  0  0  0  0  0
   38.6411   29.0258  -13.5346 H   0  0  0  0  0  0  0  0  0  0  0  0
   37.2308   30.5793  -14.8780 H   0  0  0  0  0  0  0  0  0  0  0  0
   36.5698   29.9732  -17.2051 H   0  0  0  0  0  0  0  0  0  0  0  0
   37.3115   27.8039  -18.1841 H   0  0  0  0  0  0  0  0  0  0  0  0
   38.7194   26.2444  -16.8476 H   0  0  0  0  0  0  0  0  0  0  0  0
  1  2  3  0
  2  3  1  0
  3  4  1  0
  4  5  1  0
  4  6  1  0
  6  7  1  0
  6  8  1  0
  8  9  1  0
  9 10  2  0
 10 11  1  0
 11 12  2  0
 12 13  1  0
 13 14  2  0
 14  9  1  0
  1 15  1  0
  3 16  1  0
  3 17  1  0
  4 18  1  6
  5 19  1  0
  5 20  1  0
  5 21  1  0
  6 22  1  1
  7 23  1  0
  7 24  1  0
  7 25  1  0
  8 26  1  0
  8 27  1  0
 10 28  1  0
 11 29  1  0
 12 30  1  0
 13 31  1  0
 14 32  1  0
M  CHG  1   4   1
M  END
>  <meeko>  (5) 
{"is_sidechain": [false], "free_energy": -7.07, "intermolecular_energy": -8.755, "internal_energy": -0.335}

$$$$
selegiline_out
     RDKit          3D

 32 32  0  0  0  0  0  0  0  0999 V2000
   39.5140   28.5740  -13.0580 C   0  0  0  0  0  0  0  0  0  0  0  0
   39.3060   27.7200  -13.8760 C   0  0  0  0  0  0  0  0  0  0  0  0
   39.0450   26.6680  -14.8750 C   0  0  0  0  0  0  0  0  0  0  0  0
   39.2140   27.1710  -16.2490 N   0  0  1  0  0  0  0  0  0  0  0  0
   40.0330   26.2570  -17.0480 C   0  0  0  0  0  0  0  0  0  0  0  0
   37.9090   27.5130  -16.8740 C   0  0  2  0  0  0  0  0  0  0  0  0
   37.6040   26.7350  -18.1640 C   0  0  0  0  0  0  0  0  0  0  0  0
   37.8040   29.0460  -17.1010 C   0  0  0  0  0  0  0  0  0  0  0  0
   36.5740   29.6720  -16.4790 C   0  0  0  0  0  0  0  0  0  0  0  0
   36.4730   29.8190  -15.0890 C   0  0  0  0  0  0  0  0  0  0  0  0
   35.3410   30.4050  -14.5210 C   0  0  0  0  0  0  0  0  0  0  0  0
   34.3000   30.8490  -15.3350 C   0  0  0  0  0  0  0  0  0  0  0  0
   34.3900   30.7050  -16.7170 C   0  0  0  0  0  0  0  0  0  0  0  0
   35.5200   30.1190  -17.2880 C   0  0  0  0  0  0  0  0  0  0  0  0
   39.7046   29.3564  -12.3086 H   0  0  0  0  0  0  0  0  0  0  0  0
   39.7468   25.8372  -14.7102 H   0  0  0  0  0  0  0  0  0  0  0  0
   38.0041   26.3323  -14.7571 H   0  0  0  0  0  0  0  0  0  0  0  0
   39.7300   28.0490  -16.2090 H   0  0  0  0  0  0  0  0  0  0  0  0
   40.6157   25.6067  -16.3789 H   0  0  0  0  0  0  0  0  0  0  0  0
   39.3804   25.6395  -17.6826 H   0  0  0  0  0  0  0  0  0  0  0  0
   40.7182   26.8382  -17.6826 H   0  0  0  0  0  0  0  0  0  0  0  0
   37.1353   27.1958  -16.1593 H   0  0  0  0  0  0  0  0  0  0  0  0
   37.2135   25.7390  -17.9079 H   0  0  0  0  0  0  0  0  0  0  0  0
   36.8539   27.2824  -18.7537 H   0  0  0  0  0  0  0  0  0  0  0  0
   38.5263   26.6268  -18.7537 H   0  0  0  0  0  0  0  0  0  0  0  0
   38.6942   29.5231  -16.6652 H   0  0  0  0  0  0  0  0  0  0  0  0
   37.7307   29.2052  -18.1869 H   0  0  0  0  0  0  0  0  0  0  0  0
   37.2911   29.4703  -14.4416 H   0  0  0  0  0  0  0  0  0  0  0  0
   35.2700   30.5168  -13.4290 H   0  0  0  0  0  0  0  0  0  0  0  0
   33.4090   31.3123  -14.8863 H   0  0  0  0  0  0  0  0  0  0  0  0
   33.5685   31.0540  -17.3599 H   0  0  0  0  0  0  0  0  0  0  0  0
   35.5844   30.0069  -18.3804 H   0  0  0  0  0  0  0  0  0  0  0  0
  1  2  3  0
  2  3  1  0
  3  4  1  0
  4  5  1  0
  4  6  1  0
  6  7  1  0
  6  8  1  0
  8  9  1  0
  9 10  2  0
 10 11  1  0
 11 12  2  0
 12 13  1  0
 13 14  2  0
 14  9  1  0
  1 15  1  0
  3 16  1  0
  3 17  1  0
  4 18  1  1
  5 19  1  0
  5 20  1  0
  5 21  1  0
  6 22  1  1
  7 23  1  0
  7 24  1  0
  7 25  1  0
  8 26  1  0
  8 27  1  0
 10 28  1  0
 11 29  1  0
 12 30  1  0
 13 31  1  0
 14 32  1  0
M  CHG  1   4   1
M  END
>  <meeko>  (6) 
{"is_sidechain": [false], "free_energy": -7.07, "intermolecular_energy": -8.403, "internal_energy": -0.687}

$$$$
selegiline_out
     RDKit          3D

 32 32  0  0  0  0  0  0  0  0999 V2000
   40.9730   26.4990  -14.6100 C   0  0  0  0  0  0  0  0  0  0  0  0
   39.8570   26.9190  -14.7600 C   0  0  0  0  0  0  0  0  0  0  0  0
   38.4880   27.4330  -14.9370 C   0  0  0  0  0  0  0  0  0  0  0  0
   38.3580   28.2140  -16.1790 N   0  0  1  0  0  0  0  0  0  0  0  0
   37.9840   27.3560  -17.3050 C   0  0  0  0  0  0  0  0  0  0  0  0
   37.4690   29.3920  -15.9970 C   0  0  2  0  0  0  0  0  0  0  0  0
   36.9440   29.5710  -14.5630 C   0  0  0  0  0  0  0  0  0  0  0  0
   36.3040   29.3540  -17.0240 C   0  0  0  0  0  0  0  0  0  0  0  0
   35.6600   30.7030  -17.2670 C   0  0  0  0  0  0  0  0  0  0  0  0
   34.3440   30.7920  -17.7380 C   0  0  0  0  0  0  0  0  0  0  0  0
   33.7520   32.0380  -17.9520 C   0  0  0  0  0  0  0  0  0  0  0  0
   34.4700   33.2050  -17.6970 C   0  0  0  0  0  0  0  0  0  0  0  0
   35.7810   33.1270  -17.2320 C   0  0  0  0  0  0  0  0  0  0  0  0
   36.3740   31.8830  -17.0170 C   0  0  0  0  0  0  0  0  0  0  0  0
   41.9945   26.1146  -14.4727 H   0  0  0  0  0  0  0  0  0  0  0  0
   37.7900   26.5837  -14.9748 H   0  0  0  0  0  0  0  0  0  0  0  0
   38.2567   28.0944  -14.0891 H   0  0  0  0  0  0  0  0  0  0  0  0
   39.2710   28.6020  -16.4120 H   0  0  0  0  0  0  0  0  0  0  0  0
   37.5717   26.4100  -16.9240 H   0  0  0  0  0  0  0  0  0  0  0  0
   37.2264   27.8656  -17.9184 H   0  0  0  0  0  0  0  0  0  0  0  0
   38.8730   27.1478  -17.9184 H   0  0  0  0  0  0  0  0  0  0  0  0
   38.0933   30.2778  -16.1857 H   0  0  0  0  0  0  0  0  0  0  0  0
   37.7343   29.3015  -13.8469 H   0  0  0  0  0  0  0  0  0  0  0  0
   36.6509   30.6198  -14.4081 H   0  0  0  0  0  0  0  0  0  0  0  0
   36.0712   28.9197  -14.4081 H   0  0  0  0  0  0  0  0  0  0  0  0
   36.6971   28.9798  -17.9808 H   0  0  0  0  0  0  0  0  0  0  0  0
   35.5270   28.6988  -16.6033 H   0  0  0  0  0  0  0  0  0  0  0  0
   33.7731   29.8739  -17.9407 H   0  0  0  0  0  0  0  0  0  0  0  0
   32.7180   32.0988  -18.3222 H   0  0  0  0  0  0  0  0  0  0  0  0
   34.0021   34.1866  -17.8627 H   0  0  0  0  0  0  0  0  0  0  0  0
   36.3492   34.0478  -17.0341 H   0  0  0  0  0  0  0  0  0  0  0  0
   37.4090   31.8276  -16.6487 H   0  0  0  0  0  0  0  0  0  0  0  0
  1  2  3  0
  2  3  1  0
  3  4  1  0
  4  5  1  0
  4  6  1  0
  6  7  1  0
  6  8  1  0
  8  9  1  0
  9 10  2  0
 10 11  1  0
 11 12  2  0
 12 13  1  0
 13 14  2  0
 14  9  1  0
  1 15  1  0
  3 16  1  0
  3 17  1  0
  4 18  1  6
  5 19  1  0
  5 20  1  0
  5 21  1  0
  6 22  1  6
  7 23  1  0
  7 24  1  0
  7 25  1  0
  8 26  1  0
  8 27  1  0
 10 28  1  0
 11 29  1  0
 12 30  1  0
 13 31  1  0
 14 32  1  0
M  CHG  1   4   1
M  END
>  <meeko>  (7) 
{"is_sidechain": [false], "free_energy": -7.054, "intermolecular_energy": -8.773, "internal_energy": -0.297}

$$$$
selegiline_out
     RDKit          3D

 32 32  0  0  0  0  0  0  0  0999 V2000
   42.6440   26.9650  -12.7320 C   0  0  0  0  0  0  0  0  0  0  0  0
   41.7210   26.8280  -13.4880 C   0  0  0  0  0  0  0  0  0  0  0  0
   40.5920   26.6550  -14.4190 C   0  0  0  0  0  0  0  0  0  0  0  0
   39.3530   27.2470  -13.8870 N   0  0  1  0  0  0  0  0  0  0  0  0
   39.6480   28.3320  -12.9470 C   0  0  0  0  0  0  0  0  0  0  0  0
   38.4140   27.6300  -14.9740 C   0  0  2  0  0  0  0  0  0  0  0  0
   38.7210   26.9760  -16.3320 C   0  0  0  0  0  0  0  0  0  0  0  0
   38.3310   29.1760  -15.0980 C   0  0  0  0  0  0  0  0  0  0  0  0
   36.9740   29.6810  -15.5400 C   0  0  0  0  0  0  0  0  0  0  0  0
   36.0800   30.2300  -14.6110 C   0  0  0  0  0  0  0  0  0  0  0  0
   34.8330   30.7020  -15.0240 C   0  0  0  0  0  0  0  0  0  0  0  0
   34.4690   30.6300  -16.3680 C   0  0  0  0  0  0  0  0  0  0  0  0
   35.3500   30.0830  -17.2980 C   0  0  0  0  0  0  0  0  0  0  0  0
   36.5960   29.6100  -16.8880 C   0  0  0  0  0  0  0  0  0  0  0  0
   43.4894   27.0905  -12.0395 H   0  0  0  0  0  0  0  0  0  0  0  0
   40.8390   27.1425  -15.3736 H   0  0  0  0  0  0  0  0  0  0  0  0
   40.4247   25.5769  -14.5593 H   0  0  0  0  0  0  0  0  0  0  0  0
   38.8620   26.5340  -13.3480 H   0  0  0  0  0  0  0  0  0  0  0  0
   39.5473   27.9616  -11.9162 H   0  0  0  0  0  0  0  0  0  0  0  0
   40.6757   28.6888  -13.1097 H   0  0  0  0  0  0  0  0  0  0  0  0
   38.9424   29.1600  -13.1097 H   0  0  0  0  0  0  0  0  0  0  0  0
   37.4302   27.2346  -14.6812 H   0  0  0  0  0  0  0  0  0  0  0  0
   39.1832   25.9913  -16.1686 H   0  0  0  0  0  0  0  0  0  0  0  0
   37.7866   26.8529  -16.8993 H   0  0  0  0  0  0  0  0  0  0  0  0
   39.4127   27.6162  -16.8993 H   0  0  0  0  0  0  0  0  0  0  0  0
   38.5619   29.6156  -14.1165 H   0  0  0  0  0  0  0  0  0  0  0  0
   39.0522   29.4747  -15.8730 H   0  0  0  0  0  0  0  0  0  0  0  0
   36.3627   30.2894  -13.5496 H   0  0  0  0  0  0  0  0  0  0  0  0
   34.1368   31.1312  -14.2884 H   0  0  0  0  0  0  0  0  0  0  0  0
   33.4873   31.0047  -16.6935 H   0  0  0  0  0  0  0  0  0  0  0  0
   35.0622   30.0240  -18.3580 H   0  0  0  0  0  0  0  0  0  0  0  0
   37.2868   29.1783  -17.6272 H   0  0  0  0  0  0  0  0  0  0  0  0
  1  2  3  0
  2  3  1  0
  3  4  1  0
  4  5  1  0
  4  6  1  0
  6  7  1  0
  6  8  1  0
  8  9  1  0
  9 10  2  0
 10 11  1  0
 11 12  2  0
 12 13  1  0
 13 14  2  0
 14  9  1  0
  1 15  1  0
  3 16  1  0
  3 17  1  0
  4 18  1  1
  5 19  1  0
  5 20  1  0
  5 21  1  0
  6 22  1  1
  7 23  1  0
  7 24  1  0
  7 25  1  0
  8 26  1  0
  8 27  1  0
 10 28  1  0
 11 29  1  0
 12 30  1  0
 13 31  1  0
 14 32  1  0
M  CHG  1   4   1
M  END
>  <meeko>  (8) 
{"is_sidechain": [false], "free_energy": -7.026, "intermolecular_energy": -8.977, "internal_energy": -0.06}

$$$$
selegiline_out
     RDKit          3D

 32 32  0  0  0  0  0  0  0  0999 V2000
   32.7120   33.0800  -17.7920 C   0  0  0  0  0  0  0  0  0  0  0  0
   33.1830   32.1750  -17.1570 C   0  0  0  0  0  0  0  0  0  0  0  0
   33.7580   31.0610  -16.3840 C   0  0  0  0  0  0  0  0  0  0  0  0
   34.8220   31.5220  -15.4760 N   0  0  1  0  0  0  0  0  0  0  0  0
   34.5830   31.0600  -14.1060 C   0  0  0  0  0  0  0  0  0  0  0  0
   36.1740   31.1890  -15.9970 C   0  0  2  0  0  0  0  0  0  0  0  0
   36.8710   32.3490  -16.7280 C   0  0  0  0  0  0  0  0  0  0  0  0
   36.1130   29.9170  -16.8870 C   0  0  0  0  0  0  0  0  0  0  0  0
   37.1300   28.8610  -16.5120 C   0  0  0  0  0  0  0  0  0  0  0  0
   37.6110   27.9590  -17.4710 C   0  0  0  0  0  0  0  0  0  0  0  0
   38.5560   26.9930  -17.1220 C   0  0  0  0  0  0  0  0  0  0  0  0
   39.0280   26.9180  -15.8130 C   0  0  0  0  0  0  0  0  0  0  0  0
   38.5540   27.8080  -14.8510 C   0  0  0  0  0  0  0  0  0  0  0  0
   37.6100   28.7750  -15.1970 C   0  0  0  0  0  0  0  0  0  0  0  0
   32.2809   33.9084  -18.3733 H   0  0  0  0  0  0  0  0  0  0  0  0
   32.9610   30.5903  -15.7897 H   0  0  0  0  0  0  0  0  0  0  0  0
   34.1976   30.3427  -17.0916 H   0  0  0  0  0  0  0  0  0  0  0  0
   34.7930   32.5410  -15.4380 H   0  0  0  0  0  0  0  0  0  0  0  0
   34.9687   31.8056  -13.3951 H   0  0  0  0  0  0  0  0  0  0  0  0
   33.5027   30.9265  -13.9473 H   0  0  0  0  0  0  0  0  0  0  0  0
   35.0982   30.1011  -13.9473 H   0  0  0  0  0  0  0  0  0  0  0  0
   36.8002   30.9875  -15.1154 H   0  0  0  0  0  0  0  0  0  0  0  0
   37.2910   33.0480  -15.9898 H   0  0  0  0  0  0  0  0  0  0  0  0
   37.6801   31.9517  -17.3585 H   0  0  0  0  0  0  0  0  0  0  0  0
   36.1404   32.8769  -17.3585 H   0  0  0  0  0  0  0  0  0  0  0  0
   35.1082   29.4785  -16.7971 H   0  0  0  0  0  0  0  0  0  0  0  0
   36.3433   30.2334  -17.9150 H   0  0  0  0  0  0  0  0  0  0  0  0
   37.2412   28.0128  -18.5056 H   0  0  0  0  0  0  0  0  0  0  0  0
   38.9288   26.2898  -17.8813 H   0  0  0  0  0  0  0  0  0  0  0  0
   39.7738   26.1572  -15.5393 H   0  0  0  0  0  0  0  0  0  0  0  0
   38.9249   27.7479  -13.8172 H   0  0  0  0  0  0  0  0  0  0  0  0
   37.2396   29.4748  -14.4334 H   0  0  0  0  0  0  0  0  0  0  0  0
  1  2  3  0
  2  3  1  0
  3  4  1  0
  4  5  1  0
  4  6  1  0
  6  7  1  0
  6  8  1  0
  8  9  1  0
  9 10  2  0
 10 11  1  0
 11 12  2  0
 12 13  1  0
 13 14  2  0
 14  9  1  0
  1 15  1  0
  3 16  1  0
  3 17  1  0
  4 18  1  1
  5 19  1  0
  5 20  1  0
  5 21  1  0
  6 22  1  1
  7 23  1  0
  7 24  1  0
  7 25  1  0
  8 26  1  0
  8 27  1  0
 10 28  1  0
 11 29  1  0
 12 30  1  0
 13 31  1  0
 14 32  1  0
M  CHG  1   4   1
M  END
>  <meeko>  (9) 
{"is_sidechain": [false], "free_energy": -7.013, "intermolecular_energy": -8.46, "internal_energy": -0.559}

$$$$
