VP7_out
     RDKit          3D

 45 48  0  0  0  0  0  0  0  0999 V2000
   32.8810   31.4300  -14.8150 C   0  0  0  0  0  0  0  0  0  0  0  0
   33.9820   31.0030  -13.8470 C   0  0  0  0  0  0  0  0  0  0  0  0
   33.3970   30.2120  -12.6790 C   0  0  0  0  0  0  0  0  0  0  0  0
   34.5870   32.1800  -13.3100 O   0  0  0  0  0  0  0  0  0  0  0  0
   35.0080   30.2140  -14.5450 C   0  0  0  0  0  0  0  0  0  0  0  0
   35.8460   29.5740  -15.1230 C   0  0  0  0  0  0  0  0  0  0  0  0
   36.8440   28.8090  -15.8060 C   0  0  0  0  0  0  0  0  0  0  0  0
   36.7150   28.5600  -17.1700 C   0  0  0  0  0  0  0  0  0  0  0  0
   37.6750   27.8110  -17.8560 C   0  0  0  0  0  0  0  0  0  0  0  0
   38.7650   27.3250  -17.1230 C   0  0  0  0  0  0  0  0  0  0  0  0
   39.8300   26.5690  -17.5340 N   0  0  0  0  0  0  0  0  0  0  0  0
   40.6820   26.2870  -16.4890 C   0  0  0  0  0  0  0  0  0  0  0  0
   40.1660   26.9080  -15.3540 C   0  0  0  0  0  0  0  0  0  0  0  0
   38.9370   27.5560  -15.7610 C   0  0  0  0  0  0  0  0  0  0  0  0
   37.9440   28.3140  -15.0950 C   0  0  0  0  0  0  0  0  0  0  0  0
   40.7620   26.9020  -14.0080 C   0  0  0  0  0  0  0  0  0  0  0  0
   39.8880   27.2250  -13.0260 N   0  0  0  0  0  0  0  0  0  0  0  0
   40.3210   27.2060  -11.7680 C   0  0  0  0  0  0  0  0  0  0  0  0
   39.4230   27.5560  -10.7800 N   0  0  0  0  0  0  0  0  0  0  0  0
   41.5650   26.9230  -11.3990 N   0  0  0  0  0  0  0  0  0  0  0  0
   42.4170   26.6150  -12.3920 C   0  0  0  0  0  0  0  0  0  0  0  0
   42.0830   26.5950  -13.7350 C   0  0  0  0  0  0  0  0  0  0  0  0
   43.1290   26.2600  -14.7520 C   0  0  0  0  0  0  0  0  0  0  0  0
   42.7080   25.0500  -15.5660 C   0  0  0  0  0  0  0  0  0  0  0  0
   41.8700   25.4300  -16.7740 C   0  0  0  0  0  0  0  0  0  0  0  0
   32.0036   31.7703  -14.2454 H   0  0  0  0  0  0  0  0  0  0  0  0
   33.2479   32.2510  -15.4485 H   0  0  0  0  0  0  0  0  0  0  0  0
   32.5983   30.5763  -15.4485 H   0  0  0  0  0  0  0  0  0  0  0  0
   33.7282   30.6598  -11.7304 H   0  0  0  0  0  0  0  0  0  0  0  0
   32.2986   30.2373  -12.7326 H   0  0  0  0  0  0  0  0  0  0  0  0
   33.7428   29.1692  -12.7326 H   0  0  0  0  0  0  0  0  0  0  0  0
   35.1150   31.9460  -12.5310 H   0  0  0  0  0  0  0  0  0  0  0  0
   35.8461   28.9580  -17.7146 H   0  0  0  0  0  0  0  0  0  0  0  0
   37.5780   27.6103  -18.9332 H   0  0  0  0  0  0  0  0  0  0  0  0
   39.9690   26.2650  -18.4610 H   0  0  0  0  0  0  0  0  0  0  0  0
   38.0367   28.5144  -14.0174 H   0  0  0  0  0  0  0  0  0  0  0  0
   39.5220   28.4140  -10.3060 H   0  0  0  0  0  0  0  0  0  0  0  0
   38.6850   26.9470  -10.5480 H   0  0  0  0  0  0  0  0  0  0  0  0
   43.4517   26.3612  -12.1182 H   0  0  0  0  0  0  0  0  0  0  0  0
   43.2682   27.1189  -15.4250 H   0  0  0  0  0  0  0  0  0  0  0  0
   44.0709   26.0301  -14.2324 H   0  0  0  0  0  0  0  0  0  0  0  0
   43.6107   24.5257  -15.9127 H   0  0  0  0  0  0  0  0  0  0  0  0
   42.0929   24.4072  -14.9191 H   0  0  0  0  0  0  0  0  0  0  0  0
   42.5177   25.9723  -17.4785 H   0  0  0  0  0  0  0  0  0  0  0  0
   41.4718   24.4858  -17.1739 H   0  0  0  0  0  0  0  0  0  0  0  0
  1  2  1  0
  2  3  1  0
  2  4  1  0
  2  5  1  0
  5  6  3  0
  6  7  1  0
  7  8  2  0
  8  9  1  0
  9 10  2  0
 10 11  1  0
 11 12  1  0
 12 13  2  0
 13 14  1  0
 14 15  2  0
 13 16  1  0
 16 17  2  0
 17 18  1  0
 18 19  1  0
 18 20  2  0
 20 21  1  0
 21 22  2  0
 22 23  1  0
 23 24  1  0
 24 25  1  0
 15  7  1  0
 22 16  1  0
 14 10  1  0
 25 12  1  0
  1 26  1  0
  1 27  1  0
  1 28  1  0
  3 29  1  0
  3 30  1  0
  3 31  1  0
  4 32  1  0
  8 33  1  0
  9 34  1  0
 11 35  1  0
 15 36  1  0
 19 37  1  0
 19 38  1  0
 21 39  1  0
 23 40  1  0
 23 41  1  0
 24 42  1  0
 24 43  1  0
 25 44  1  0
 25 45  1  0
M  END
>  <meeko>  (1) 
{"is_sidechain": [false], "free_energy": -5.23, "intermolecular_energy": -7.064, "internal_energy": 0.773}

$$$$
VP7_out
     RDKit          3D

 45 48  0  0  0  0  0  0  0  0999 V2000
   43.2720   27.6850  -12.9830 C   0  0  0  0  0  0  0  0  0  0  0  0
   42.1060   26.7120  -12.8130 C   0  0  0  0  0  0  0  0  0  0  0  0
   41.4810   26.8560  -11.4280 C   0  0  0  0  0  0  0  0  0  0  0  0
   42.6140   25.3830  -12.9220 O   0  0  0  0  0  0  0  0  0  0  0  0
   41.0970   26.9270  -13.8620 C   0  0  0  0  0  0  0  0  0  0  0  0
   40.2790   27.1030  -14.7250 C   0  0  0  0  0  0  0  0  0  0  0  0
   39.3050   27.3190  -15.7510 C   0  0  0  0  0  0  0  0  0  0  0  0
   39.3320   26.5430  -16.9070 C   0  0  0  0  0  0  0  0  0  0  0  0
   38.3940   26.7400  -17.9240 C   0  0  0  0  0  0  0  0  0  0  0  0
   37.4320   27.7400  -17.7360 C   0  0  0  0  0  0  0  0  0  0  0  0
   36.4160   28.1440  -18.5600 N   0  0  0  0  0  0  0  0  0  0  0  0
   35.6980   29.1800  -18.0040 C   0  0  0  0  0  0  0  0  0  0  0  0
   36.2500   29.4450  -16.7530 C   0  0  0  0  0  0  0  0  0  0  0  0
   37.3640   28.5330  -16.5940 C   0  0  0  0  0  0  0  0  0  0  0  0
   38.3320   28.3110  -15.5850 C   0  0  0  0  0  0  0  0  0  0  0  0
   35.7860   30.4540  -15.7880 C   0  0  0  0  0  0  0  0  0  0  0  0
   36.1530   30.1950  -14.5110 N   0  0  0  0  0  0  0  0  0  0  0  0
   35.8170   31.0730  -13.5700 C   0  0  0  0  0  0  0  0  0  0  0  0
   36.1830   30.7850  -12.2710 N   0  0  0  0  0  0  0  0  0  0  0  0
   35.1150   32.1800  -13.7820 N   0  0  0  0  0  0  0  0  0  0  0  0
   34.7530   32.4110  -15.0550 C   0  0  0  0  0  0  0  0  0  0  0  0
   35.0490   31.5770  -16.1200 C   0  0  0  0  0  0  0  0  0  0  0  0
   34.5680   31.9310  -17.4930 C   0  0  0  0  0  0  0  0  0  0  0  0
   33.7340   30.7990  -18.0950 C   0  0  0  0  0  0  0  0  0  0  0  0
   34.5830   29.7610  -18.8080 C   0  0  0  0  0  0  0  0  0  0  0  0
   43.6404   27.9924  -11.9931 H   0  0  0  0  0  0  0  0  0  0  0  0
   44.0829   27.1919  -13.5391 H   0  0  0  0  0  0  0  0  0  0  0  0
   42.9320   28.5711  -13.5391 H   0  0  0  0  0  0  0  0  0  0  0  0
   42.2479   26.6793  -10.6595 H   0  0  0  0  0  0  0  0  0  0  0  0
   41.0740   27.8715  -11.3132 H   0  0  0  0  0  0  0  0  0  0  0  0
   40.6707   26.1210  -11.3132 H   0  0  0  0  0  0  0  0  0  0  0  0
   43.5800   25.3970  -12.8260 H   0  0  0  0  0  0  0  0  0  0  0  0
   40.1014   25.7651  -17.0211 H   0  0  0  0  0  0  0  0  0  0  0  0
   38.4108   26.1310  -18.8399 H   0  0  0  0  0  0  0  0  0  0  0  0
   36.2230   27.7460  -19.4400 H   0  0  0  0  0  0  0  0  0  0  0  0
   38.3193   28.9195  -14.6687 H   0  0  0  0  0  0  0  0  0  0  0  0
   35.6540   30.1440  -11.7410 H   0  0  0  0  0  0  0  0  0  0  0  0
   36.9710   31.2200  -11.8740 H   0  0  0  0  0  0  0  0  0  0  0  0
   34.1814   33.3268  -15.2661 H   0  0  0  0  0  0  0  0  0  0  0  0
   33.9506   32.8395  -17.4339 H   0  0  0  0  0  0  0  0  0  0  0  0
   35.4440   32.0991  -18.1368 H   0  0  0  0  0  0  0  0  0  0  0  0
   33.1776   30.3031  -17.2860 H   0  0  0  0  0  0  0  0  0  0  0  0
   33.0581   31.2441  -18.8400 H   0  0  0  0  0  0  0  0  0  0  0  0
   33.9227   28.9371  -19.1165 H   0  0  0  0  0  0  0  0  0  0  0  0
   35.0592   30.2865  -19.6488 H   0  0  0  0  0  0  0  0  0  0  0  0
  1  2  1  0
  2  3  1  0
  2  4  1  0
  2  5  1  0
  5  6  3  0
  6  7  1  0
  7  8  2  0
  8  9  1  0
  9 10  2  0
 10 11  1  0
 11 12  1  0
 12 13  2  0
 13 14  1  0
 14 15  2  0
 13 16  1  0
 16 17  2  0
 17 18  1  0
 18 19  1  0
 18 20  2  0
 20 21  1  0
 21 22  2  0
 22 23  1  0
 23 24  1  0
 24 25  1  0
 15  7  1  0
 22 16  1  0
 14 10  1  0
 25 12  1  0
  1 26  1  0
  1 27  1  0
  1 28  1  0
  3 29  1  0
  3 30  1  0
  3 31  1  0
  4 32  1  0
  8 33  1  0
  9 34  1  0
 11 35  1  0
 15 36  1  0
 19 37  1  0
 19 38  1  0
 21 39  1  0
 23 40  1  0
 23 41  1  0
 24 42  1  0
 24 43  1  0
 25 44  1  0
 25 45  1  0
M  END
>  <meeko>  (2) 
{"is_sidechain": [false], "free_energy": -4.692, "intermolecular_energy": -6.264, "internal_energy": 0.701}

$$$$
VP7_out
     RDKit          3D

 45 48  0  0  0  0  0  0  0  0999 V2000
   34.7800   32.5840  -15.8990 C   0  0  0  0  0  0  0  0  0  0  0  0
   34.2940   31.1430  -15.7570 C   0  0  0  0  0  0  0  0  0  0  0  0
   33.0400   30.9110  -16.5960 C   0  0  0  0  0  0  0  0  0  0  0  0
   33.9460   30.9220  -14.3900 O   0  0  0  0  0  0  0  0  0  0  0  0
   35.3550   30.1990  -16.1400 C   0  0  0  0  0  0  0  0  0  0  0  0
   36.2280   29.4330  -16.4480 C   0  0  0  0  0  0  0  0  0  0  0  0
   37.2680   28.5180  -16.8090 C   0  0  0  0  0  0  0  0  0  0  0  0
   37.3180   28.0000  -18.1010 C   0  0  0  0  0  0  0  0  0  0  0  0
   38.3210   27.1010  -18.4750 C   0  0  0  0  0  0  0  0  0  0  0  0
   39.2670   26.7440  -17.5050 C   0  0  0  0  0  0  0  0  0  0  0  0
   40.3350   25.8920  -17.5960 N   0  0  0  0  0  0  0  0  0  0  0  0
   41.0130   25.8050  -16.4000 C   0  0  0  0  0  0  0  0  0  0  0  0
   40.3780   26.6570  -15.4990 C   0  0  0  0  0  0  0  0  0  0  0  0
   39.2580   27.2430  -16.2060 C   0  0  0  0  0  0  0  0  0  0  0  0
   38.2260   28.1470  -15.8580 C   0  0  0  0  0  0  0  0  0  0  0  0
   40.7760   26.9090  -14.1050 C   0  0  0  0  0  0  0  0  0  0  0  0
   39.7870   27.4320  -13.3430 N   0  0  0  0  0  0  0  0  0  0  0  0
   40.0360   27.6550  -12.0560 C   0  0  0  0  0  0  0  0  0  0  0  0
   39.0240   28.2060  -11.2970 N   0  0  0  0  0  0  0  0  0  0  0  0
   41.2020   27.4320  -11.4600 N   0  0  0  0  0  0  0  0  0  0  0  0
   42.1720   26.9220  -12.2380 C   0  0  0  0  0  0  0  0  0  0  0  0
   42.0310   26.6420  -13.5870 C   0  0  0  0  0  0  0  0  0  0  0  0
   43.1950   26.0970  -14.3540 C   0  0  0  0  0  0  0  0  0  0  0  0
   42.8350   24.7520  -14.9660 C   0  0  0  0  0  0  0  0  0  0  0  0
   42.1780   24.8750  -16.3300 C   0  0  0  0  0  0  0  0  0  0  0  0
   34.9275   33.0213  -14.9005 H   0  0  0  0  0  0  0  0  0  0  0  0
   35.7323   32.5972  -16.4494 H   0  0  0  0  0  0  0  0  0  0  0  0
   34.0302   33.1713  -16.4494 H   0  0  0  0  0  0  0  0  0  0  0  0
   32.1783   30.7516  -15.9311 H   0  0  0  0  0  0  0  0  0  0  0  0
   32.8556   31.7903  -17.2307 H   0  0  0  0  0  0  0  0  0  0  0  0
   33.1824   30.0240  -17.2307 H   0  0  0  0  0  0  0  0  0  0  0  0
   33.1700   31.4590  -14.1630 H   0  0  0  0  0  0  0  0  0  0  0  0
   36.5582   28.3023  -18.8367 H   0  0  0  0  0  0  0  0  0  0  0  0
   38.3660   26.6888  -19.4939 H   0  0  0  0  0  0  0  0  0  0  0  0
   40.5860   25.4020  -18.4130 H   0  0  0  0  0  0  0  0  0  0  0  0
   38.1767   28.5585  -14.8391 H   0  0  0  0  0  0  0  0  0  0  0  0
   38.6220   29.0650  -11.5610 H   0  0  0  0  0  0  0  0  0  0  0  0
   38.7040   27.7390  -10.4910 H   0  0  0  0  0  0  0  0  0  0  0  0
   43.1456   26.7124  -11.7708 H   0  0  0  0  0  0  0  0  0  0  0  0
   43.4642   26.8008  -15.1554 H   0  0  0  0  0  0  0  0  0  0  0  0
   44.0463   25.9647  -13.6700 H   0  0  0  0  0  0  0  0  0  0  0  0
   43.7549   24.1584  -15.0727 H   0  0  0  0  0  0  0  0  0  0  0  0
   42.1093   24.2697  -14.2946 H   0  0  0  0  0  0  0  0  0  0  0  0
   42.9381   25.2297  -17.0416 H   0  0  0  0  0  0  0  0  0  0  0  0
   41.7819   23.8762  -16.5658 H   0  0  0  0  0  0  0  0  0  0  0  0
  1  2  1  0
  2  3  1  0
  2  4  1  0
  2  5  1  0
  5  6  3  0
  6  7  1  0
  7  8  2  0
  8  9  1  0
  9 10  2  0
 10 11  1  0
 11 12  1  0
 12 13  2  0
 13 14  1  0
 14 15  2  0
 13 16  1  0
 16 17  2  0
 17 18  1  0
 18 19  1  0
 18 20  2  0
 20 21  1  0
 21 22  2  0
 22 23  1  0
 23 24  1  0
 24 25  1  0
 15  7  1  0
 22 16  1  0
 14 10  1  0
 25 12  1  0
  1 26  1  0
  1 27  1  0
  1 28  1  0
  3 29  1  0
  3 30  1  0
  3 31  1  0
  4 32  1  0
  8 33  1  0
  9 34  1  0
 11 35  1  0
 15 36  1  0
 19 37  1  0
 19 38  1  0
 21 39  1  0
 23 40  1  0
 23 41  1  0
 24 42  1  0
 24 43  1  0
 25 44  1  0
 25 45  1  0
M  END
>  <meeko>  (3) 
{"is_sidechain": [false], "free_energy": -3.338, "intermolecular_energy": -4.503, "internal_energy": 0.767}

$$$$
VP7_out
     RDKit          3D

 45 48  0  0  0  0  0  0  0  0999 V2000
   31.9300   31.8130  -16.8890 C   0  0  0  0  0  0  0  0  0  0  0  0
   33.3400   31.8740  -17.4740 C   0  0  0  0  0  0  0  0  0  0  0  0
   33.6970   33.3030  -17.8760 C   0  0  0  0  0  0  0  0  0  0  0  0
   33.3680   31.0730  -18.6560 O   0  0  0  0  0  0  0  0  0  0  0  0
   34.3220   31.3450  -16.5150 C   0  0  0  0  0  0  0  0  0  0  0  0
   35.1180   30.9070  -15.7290 C   0  0  0  0  0  0  0  0  0  0  0  0
   36.0710   30.3840  -14.7980 C   0  0  0  0  0  0  0  0  0  0  0  0
   36.0860   30.8500  -13.4860 C   0  0  0  0  0  0  0  0  0  0  0  0
   37.0110   30.3580  -12.5600 C   0  0  0  0  0  0  0  0  0  0  0  0
   37.9150   29.3840  -13.0020 C   0  0  0  0  0  0  0  0  0  0  0  0
   38.9160   28.7450  -12.3200 N   0  0  0  0  0  0  0  0  0  0  0  0
   39.5920   27.8590  -13.1300 C   0  0  0  0  0  0  0  0  0  0  0  0
   38.9900   27.9010  -14.3860 C   0  0  0  0  0  0  0  0  0  0  0  0
   37.9300   28.8850  -14.3010 C   0  0  0  0  0  0  0  0  0  0  0  0
   36.9840   29.4080  -15.2150 C   0  0  0  0  0  0  0  0  0  0  0  0
   39.3620   27.0980  -15.5610 C   0  0  0  0  0  0  0  0  0  0  0  0
   38.3710   26.9800  -16.4750 N   0  0  0  0  0  0  0  0  0  0  0  0
   38.6240   26.3080  -17.5950 C   0  0  0  0  0  0  0  0  0  0  0  0
   37.5980   26.1800  -18.5080 N   0  0  0  0  0  0  0  0  0  0  0  0
   39.7770   25.7100  -17.8740 N   0  0  0  0  0  0  0  0  0  0  0  0
   40.7430   25.8320  -16.9480 C   0  0  0  0  0  0  0  0  0  0  0  0
   40.6010   26.5110  -15.7500 C   0  0  0  0  0  0  0  0  0  0  0  0
   41.7450   26.5560  -14.7860 C   0  0  0  0  0  0  0  0  0  0  0  0
   41.3380   26.0270  -13.4110 C   0  0  0  0  0  0  0  0  0  0  0  0
   40.7440   27.1180  -12.5380 C   0  0  0  0  0  0  0  0  0  0  0  0
   31.9883   31.8155  -15.7906 H   0  0  0  0  0  0  0  0  0  0  0  0
   31.3544   32.6871  -17.2276 H   0  0  0  0  0  0  0  0  0  0  0  0
   31.4320   30.8925  -17.2276 H   0  0  0  0  0  0  0  0  0  0  0  0
   33.8489   33.9111  -16.9720 H   0  0  0  0  0  0  0  0  0  0  0  0
   34.6210   33.2960  -18.4728 H   0  0  0  0  0  0  0  0  0  0  0  0
   32.8783   33.7314  -18.4728 H   0  0  0  0  0  0  0  0  0  0  0  0
   32.6980   30.3740  -18.5890 H   0  0  0  0  0  0  0  0  0  0  0  0
   35.3604   31.6155  -13.1738 H   0  0  0  0  0  0  0  0  0  0  0  0
   37.0280   30.7226  -11.5223 H   0  0  0  0  0  0  0  0  0  0  0  0
   39.1270   28.9000  -11.3700 H   0  0  0  0  0  0  0  0  0  0  0  0
   36.9662   29.0472  -16.2540 H   0  0  0  0  0  0  0  0  0  0  0  0
   36.6930   26.4930  -18.2780 H   0  0  0  0  0  0  0  0  0  0  0  0
   37.7710   25.7760  -19.3890 H   0  0  0  0  0  0  0  0  0  0  0  0
   41.7142   25.3595  -17.1564 H   0  0  0  0  0  0  0  0  0  0  0  0
   42.5672   25.9391  -15.1776 H   0  0  0  0  0  0  0  0  0  0  0  0
   42.0615   27.6035  -14.6737 H   0  0  0  0  0  0  0  0  0  0  0  0
   40.5906   25.2309  -13.5432 H   0  0  0  0  0  0  0  0  0  0  0  0
   42.2406   25.6445  -12.9119 H   0  0  0  0  0  0  0  0  0  0  0  0
   40.4028   26.6539  -11.6009 H   0  0  0  0  0  0  0  0  0  0  0  0
   41.5424   27.8620  -12.3996 H   0  0  0  0  0  0  0  0  0  0  0  0
  1  2  1  0
  2  3  1  0
  2  4  1  0
  2  5  1  0
  5  6  3  0
  6  7  1  0
  7  8  2  0
  8  9  1  0
  9 10  2  0
 10 11  1  0
 11 12  1  0
 12 13  2  0
 13 14  1  0
 14 15  2  0
 13 16  1  0
 16 17  2  0
 17 18  1  0
 18 19  1  0
 18 20  2  0
 20 21  1  0
 21 22  2  0
 22 23  1  0
 23 24  1  0
 24 25  1  0
 15  7  1  0
 22 16  1  0
 14 10  1  0
 25 12  1  0
  1 26  1  0
  1 27  1  0
  1 28  1  0
  3 29  1  0
  3 30  1  0
  3 31  1  0
  4 32  1  0
  8 33  1  0
  9 34  1  0
 11 35  1  0
 15 36  1  0
 19 37  1  0
 19 38  1  0
 21 39  1  0
 23 40  1  0
 23 41  1  0
 24 42  1  0
 24 43  1  0
 25 44  1  0
 25 45  1  0
M  END
>  <meeko>  (4) 
{"is_sidechain": [false], "free_energy": -3.098, "intermolecular_energy": -4.119, "internal_energy": 0.708}

$$$$
VP7_out
     RDKit          3D

 45 48  0  0  0  0  0  0  0  0999 V2000
   43.6820   26.1290  -14.1260 C   0  0  0  0  0  0  0  0  0  0  0  0
   42.4350   25.6790  -14.8850 C   0  0  0  0  0  0  0  0  0  0  0  0
   42.0810   24.2360  -14.5330 C   0  0  0  0  0  0  0  0  0  0  0  0
   42.7240   25.7240  -16.2830 O   0  0  0  0  0  0  0  0  0  0  0  0
   41.3040   26.5750  -14.6000 C   0  0  0  0  0  0  0  0  0  0  0  0
   40.3850   27.3130  -14.3680 C   0  0  0  0  0  0  0  0  0  0  0  0
   39.2870   28.1890  -14.0960 C   0  0  0  0  0  0  0  0  0  0  0  0
   39.1830   28.8050  -12.8510 C   0  0  0  0  0  0  0  0  0  0  0  0
   38.1160   29.6600  -12.5610 C   0  0  0  0  0  0  0  0  0  0  0  0
   37.1630   29.8730  -13.5650 C   0  0  0  0  0  0  0  0  0  0  0  0
   36.0310   30.6430  -13.5480 N   0  0  0  0  0  0  0  0  0  0  0  0
   35.3520   30.5670  -14.7440 C   0  0  0  0  0  0  0  0  0  0  0  0
   36.0860   29.7340  -15.5870 C   0  0  0  0  0  0  0  0  0  0  0  0
   37.2310   29.2840  -14.8240 C   0  0  0  0  0  0  0  0  0  0  0  0
   38.3220   28.4190  -15.0840 C   0  0  0  0  0  0  0  0  0  0  0  0
   35.7540   29.3870  -16.9770 C   0  0  0  0  0  0  0  0  0  0  0  0
   36.4100   28.2950  -17.4360 N   0  0  0  0  0  0  0  0  0  0  0  0
   36.1460   27.8740  -18.6700 C   0  0  0  0  0  0  0  0  0  0  0  0
   36.8350   26.7710  -19.1290 N   0  0  0  0  0  0  0  0  0  0  0  0
   35.3030   28.4680  -19.5080 N   0  0  0  0  0  0  0  0  0  0  0  0
   34.6720   29.5560  -19.0350 C   0  0  0  0  0  0  0  0  0  0  0  0
   34.8590   30.0840  -17.7690 C   0  0  0  0  0  0  0  0  0  0  0  0
   34.1140   31.3180  -17.3650 C   0  0  0  0  0  0  0  0  0  0  0  0
   33.2790   31.0690  -16.1360 C   0  0  0  0  0  0  0  0  0  0  0  0
   34.0690   31.3190  -14.8630 C   0  0  0  0  0  0  0  0  0  0  0  0
   43.4966   26.0621  -13.0438 H   0  0  0  0  0  0  0  0  0  0  0  0
   44.5285   25.4796  -14.3938 H   0  0  0  0  0  0  0  0  0  0  0  0
   43.9188   27.1693  -14.3938 H   0  0  0  0  0  0  0  0  0  0  0  0
   42.0530   24.1217  -13.4393 H   0  0  0  0  0  0  0  0  0  0  0  0
   41.0952   23.9874  -14.9531 H   0  0  0  0  0  0  0  0  0  0  0  0
   42.8398   23.5594  -14.9531 H   0  0  0  0  0  0  0  0  0  0  0  0
   43.2710   26.5020  -16.4750 H   0  0  0  0  0  0  0  0  0  0  0  0
   39.9506   28.6161  -12.0861 H   0  0  0  0  0  0  0  0  0  0  0  0
   38.0279   30.1482  -11.5792 H   0  0  0  0  0  0  0  0  0  0  0  0
   35.7380   31.1830  -12.7780 H   0  0  0  0  0  0  0  0  0  0  0  0
   38.4113   27.9271  -16.0638 H   0  0  0  0  0  0  0  0  0  0  0  0
   36.4180   26.1680  -19.7870 H   0  0  0  0  0  0  0  0  0  0  0  0
   37.7440   26.5860  -18.7990 H   0  0  0  0  0  0  0  0  0  0  0  0
   33.9570   30.0624  -19.7001 H   0  0  0  0  0  0  0  0  0  0  0  0
   34.8360   32.1202  -17.1524 H   0  0  0  0  0  0  0  0  0  0  0  0
   33.4454   31.6082  -18.1889 H   0  0  0  0  0  0  0  0  0  0  0  0
   32.4085   31.7412  -16.1537 H   0  0  0  0  0  0  0  0  0  0  0  0
   32.9622   30.0156  -16.1430 H   0  0  0  0  0  0  0  0  0  0  0  0
   34.3002   32.3933  -14.8133 H   0  0  0  0  0  0  0  0  0  0  0  0
   33.4333   30.9631  -14.0388 H   0  0  0  0  0  0  0  0  0  0  0  0
  1  2  1  0
  2  3  1  0
  2  4  1  0
  2  5  1  0
  5  6  3  0
  6  7  1  0
  7  8  2  0
  8  9  1  0
  9 10  2  0
 10 11  1  0
 11 12  1  0
 12 13  2  0
 13 14  1  0
 14 15  2  0
 13 16  1  0
 16 17  2  0
 17 18  1  0
 18 19  1  0
 18 20  2  0
 20 21  1  0
 21 22  2  0
 22 23  1  0
 23 24  1  0
 24 25  1  0
 15  7  1  0
 22 16  1  0
 14 10  1  0
 25 12  1  0
  1 26  1  0
  1 27  1  0
  1 28  1  0
  3 29  1  0
  3 30  1  0
  3 31  1  0
  4 32  1  0
  8 33  1  0
  9 34  1  0
 11 35  1  0
 15 36  1  0
 19 37  1  0
 19 38  1  0
 21 39  1  0
 23 40  1  0
 23 41  1  0
 24 42  1  0
 24 43  1  0
 25 44  1  0
 25 45  1  0
M  END
>  <meeko>  (5) 
{"is_sidechain": [false], "free_energy": -2.346, "intermolecular_energy": -3.184, "internal_energy": 0.789}

$$$$
