rasagiline_out
     RDKit          3D

 27 28  0  0  0  0  0  0  0  0999 V2000
   54.1080  149.4230   24.7490 C   0  0  0  0  0  0  0  0  0  0  0  0
   54.1050  150.6240   24.7950 C   0  0  0  0  0  0  0  0  0  0  0  0
   54.1030  152.0910   24.8530 C   0  0  0  0  0  0  0  0  0  0  0  0
   53.0760  152.5360   25.7850 N   0  0  0  0  0  0  0  0  0  0  0  0
   52.7000  153.9300   25.5740 C   0  0  2  0  0  0  0  0  0  0  0  0
   53.8390  154.8160   25.0220 C   0  0  0  0  0  0  0  0  0  0  0  0
   53.5440  156.2450   25.5030 C   0  0  0  0  0  0  0  0  0  0  0  0
   52.8710  155.9710   26.8120 C   0  0  0  0  0  0  0  0  0  0  0  0
   52.6630  156.8490   27.8620 C   0  0  0  0  0  0  0  0  0  0  0  0
   51.9730  156.3860   28.9850 C   0  0  0  0  0  0  0  0  0  0  0  0
   51.4930  155.0670   29.0380 C   0  0  0  0  0  0  0  0  0  0  0  0
   51.6970  154.1940   27.9670 C   0  0  0  0  0  0  0  0  0  0  0  0
   52.3960  154.6530   26.8610 C   0  0  0  0  0  0  0  0  0  0  0  0
   54.1107  148.3238   24.7069 H   0  0  0  0  0  0  0  0  0  0  0  0
   55.0867  152.4463   25.1936 H   0  0  0  0  0  0  0  0  0  0  0  0
   53.8936  152.4984   23.8529 H   0  0  0  0  0  0  0  0  0  0  0  0
   53.4290  152.4330   26.7360 H   0  0  0  0  0  0  0  0  0  0  0  0
   52.2450  151.9630   25.6310 H   0  0  0  0  0  0  0  0  0  0  0  0
   51.8485  153.8250   24.8856 H   0  0  0  0  0  0  0  0  0  0  0  0
   54.8096  154.4755   25.4118 H   0  0  0  0  0  0  0  0  0  0  0  0
   53.8892  154.7655   23.9243 H   0  0  0  0  0  0  0  0  0  0  0  0
   54.4688  156.8252   25.6376 H   0  0  0  0  0  0  0  0  0  0  0  0
   52.9459  156.8456   24.8019 H   0  0  0  0  0  0  0  0  0  0  0  0
   53.0315  157.8843   27.8133 H   0  0  0  0  0  0  0  0  0  0  0  0
   51.8038  157.0614   29.8366 H   0  0  0  0  0  0  0  0  0  0  0  0
   50.9520  154.7188   29.9302 H   0  0  0  0  0  0  0  0  0  0  0  0
   51.3114  153.1643   28.0002 H   0  0  0  0  0  0  0  0  0  0  0  0
  1  2  3  0
  2  3  1  0
  3  4  1  0
  4  5  1  0
  5  6  1  0
  6  7  1  0
  7  8  1  0
  8  9  2  0
  9 10  1  0
 10 11  2  0
 11 12  1  0
 12 13  2  0
 13  5  1  0
 13  8  1  0
  1 14  1  0
  3 15  1  0
  3 16  1  0
  4 17  1  0
  4 18  1  0
  5 19  1  6
  6 20  1  0
  6 21  1  0
  7 22  1  0
  7 23  1  0
  9 24  1  0
 10 25  1  0
 11 26  1  0
 12 27  1  0
M  CHG  1   4   1
M  END
>  <meeko>  (1) 
{"is_sidechain": [false], "free_energy": -8.336, "intermolecular_energy": -9.311, "internal_energy": -0.172}

$$$$
rasagiline_out
     RDKit          3D

 27 28  0  0  0  0  0  0  0  0999 V2000
   54.0980  149.6250   24.8000 C   0  0  0  0  0  0  0  0  0  0  0  0
   54.1360  150.7700   24.4400 C   0  0  0  0  0  0  0  0  0  0  0  0
   54.1860  152.1700   23.9990 C   0  0  0  0  0  0  0  0  0  0  0  0
   54.4510  153.0280   25.1450 N   0  0  0  0  0  0  0  0  0  0  0  0
   53.5200  154.1480   25.2290 C   0  0  2  0  0  0  0  0  0  0  0  0
   54.1810  155.5350   25.0600 C   0  0  0  0  0  0  0  0  0  0  0  0
   53.2980  156.5290   25.8280 C   0  0  0  0  0  0  0  0  0  0  0  0
   52.7850  155.6590   26.9330 C   0  0  0  0  0  0  0  0  0  0  0  0
   52.2060  156.0540   28.1270 C   0  0  0  0  0  0  0  0  0  0  0  0
   51.7610  155.0630   29.0050 C   0  0  0  0  0  0  0  0  0  0  0  0
   51.8890  153.7040   28.6770 C   0  0  0  0  0  0  0  0  0  0  0  0
   52.4620  153.3180   27.4640 C   0  0  0  0  0  0  0  0  0  0  0  0
   52.9160  154.3040   26.6010 C   0  0  0  0  0  0  0  0  0  0  0  0
   54.0632  148.5762   25.1298 H   0  0  0  0  0  0  0  0  0  0  0  0
   54.9875  152.2924   23.2556 H   0  0  0  0  0  0  0  0  0  0  0  0
   53.2226  152.4477   23.5466 H   0  0  0  0  0  0  0  0  0  0  0  0
   55.3990  153.3960   25.0660 H   0  0  0  0  0  0  0  0  0  0  0  0
   54.3370  152.4660   25.9890 H   0  0  0  0  0  0  0  0  0  0  0  0
   52.8058  153.8977   24.4307 H   0  0  0  0  0  0  0  0  0  0  0  0
   55.1980  155.5260   25.4792 H   0  0  0  0  0  0  0  0  0  0  0  0
   54.2648  155.8116   23.9986 H   0  0  0  0  0  0  0  0  0  0  0  0
   53.8851  157.3735   26.2180 H   0  0  0  0  0  0  0  0  0  0  0  0
   52.5122  157.0016   25.2204 H   0  0  0  0  0  0  0  0  0  0  0  0
   52.0993  157.1198   28.3775 H   0  0  0  0  0  0  0  0  0  0  0  0
   51.3053  155.3506   29.9640 H   0  0  0  0  0  0  0  0  0  0  0  0
   51.5349  152.9371   29.3816 H   0  0  0  0  0  0  0  0  0  0  0  0
   52.5515  152.2543   27.1984 H   0  0  0  0  0  0  0  0  0  0  0  0
  1  2  3  0
  2  3  1  0
  3  4  1  0
  4  5  1  0
  5  6  1  0
  6  7  1  0
  7  8  1  0
  8  9  2  0
  9 10  1  0
 10 11  2  0
 11 12  1  0
 12 13  2  0
 13  5  1  0
 13  8  1  0
  1 14  1  0
  3 15  1  0
  3 16  1  0
  4 17  1  0
  4 18  1  0
  5 19  1  6
  6 20  1  0
  6 21  1  0
  7 22  1  0
  7 23  1  0
  9 24  1  0
 10 25  1  0
 11 26  1  0
 12 27  1  0
M  CHG  1   4   1
M  END
>  <meeko>  (2) 
{"is_sidechain": [false], "free_energy": -7.864, "intermolecular_energy": -8.71, "internal_energy": -0.245}

$$$$
rasagiline_out
     RDKit          3D

 27 28  0  0  0  0  0  0  0  0999 V2000
   52.2600  157.7870   29.2810 C   0  0  0  0  0  0  0  0  0  0  0  0
   52.0050  156.6320   29.0780 C   0  0  0  0  0  0  0  0  0  0  0  0
   51.6950  155.2180   28.8280 C   0  0  0  0  0  0  0  0  0  0  0  0
   51.6750  154.9730   27.3930 N   0  0  0  0  0  0  0  0  0  0  0  0
   53.0110  154.9760   26.8090 C   0  0  2  0  0  0  0  0  0  0  0  0
   53.2200  156.0410   25.7090 C   0  0  0  0  0  0  0  0  0  0  0  0
   54.3110  155.4900   24.7790 C   0  0  0  0  0  0  0  0  0  0  0  0
   54.0560  154.0190   24.8810 C   0  0  0  0  0  0  0  0  0  0  0  0
   54.4950  153.0180   24.0300 C   0  0  0  0  0  0  0  0  0  0  0  0
   54.1660  151.6960   24.3390 C   0  0  0  0  0  0  0  0  0  0  0  0
   53.4210  151.3930   25.4890 C   0  0  0  0  0  0  0  0  0  0  0  0
   52.9950  152.4090   26.3480 C   0  0  0  0  0  0  0  0  0  0  0  0
   53.3100  153.7210   26.0290 C   0  0  0  0  0  0  0  0  0  0  0  0
   52.4937  158.8457   29.4671 H   0  0  0  0  0  0  0  0  0  0  0  0
   52.4628  154.5855   29.2975 H   0  0  0  0  0  0  0  0  0  0  0  0
   50.7105  154.9769   29.2554 H   0  0  0  0  0  0  0  0  0  0  0  0
   51.1210  155.7020   26.9440 H   0  0  0  0  0  0  0  0  0  0  0  0
   51.2700  154.0490   27.2400 H   0  0  0  0  0  0  0  0  0  0  0  0
   53.6373  155.1322   27.6997 H   0  0  0  0  0  0  0  0  0  0  0  0
   52.2863  156.1991   25.1493 H   0  0  0  0  0  0  0  0  0  0  0  0
   53.5132  157.0096   26.1401 H   0  0  0  0  0  0  0  0  0  0  0  0
   54.1836  155.8517   23.7480 H   0  0  0  0  0  0  0  0  0  0  0  0
   55.3333  155.7931   25.0494 H   0  0  0  0  0  0  0  0  0  0  0  0
   55.0871  153.2578   23.1345 H   0  0  0  0  0  0  0  0  0  0  0  0
   54.4944  150.8838   23.6738 H   0  0  0  0  0  0  0  0  0  0  0  0
   53.1703  150.3463   25.7160 H   0  0  0  0  0  0  0  0  0  0  0  0
   52.4224  152.1733   27.2572 H   0  0  0  0  0  0  0  0  0  0  0  0
  1  2  3  0
  2  3  1  0
  3  4  1  0
  4  5  1  0
  5  6  1  0
  6  7  1  0
  7  8  1  0
  8  9  2  0
  9 10  1  0
 10 11  2  0
 11 12  1  0
 12 13  2  0
 13  5  1  0
 13  8  1  0
  1 14  1  0
  3 15  1  0
  3 16  1  0
  4 17  1  0
  4 18  1  0
  5 19  1  1
  6 20  1  0
  6 21  1  0
  7 22  1  0
  7 23  1  0
  9 24  1  0
 10 25  1  0
 11 26  1  0
 12 27  1  0
M  CHG  1   4   1
M  END
>  <meeko>  (3) 
{"is_sidechain": [false], "free_energy": -7.845, "intermolecular_energy": -8.64, "internal_energy": -0.294}

$$$$
rasagiline_out
     RDKit          3D

 27 28  0  0  0  0  0  0  0  0999 V2000
   54.3840  151.1380   24.7720 C   0  0  0  0  0  0  0  0  0  0  0  0
   54.1240  152.2790   24.5020 C   0  0  0  0  0  0  0  0  0  0  0  0
   53.8070  153.6750   24.1750 C   0  0  0  0  0  0  0  0  0  0  0  0
   52.7000  154.1270   25.0070 N   0  0  0  0  0  0  0  0  0  0  0  0
   52.9260  153.8670   26.4240 C   0  0  2  0  0  0  0  0  0  0  0  0
   51.9590  152.8300   27.0390 C   0  0  0  0  0  0  0  0  0  0  0  0
   51.8500  153.1760   28.5310 C   0  0  0  0  0  0  0  0  0  0  0  0
   52.0210  154.6620   28.4920 C   0  0  0  0  0  0  0  0  0  0  0  0
   51.6990  155.5820   29.4750 C   0  0  0  0  0  0  0  0  0  0  0  0
   51.9820  156.9300   29.2380 C   0  0  0  0  0  0  0  0  0  0  0  0
   52.5890  157.3340   28.0390 C   0  0  0  0  0  0  0  0  0  0  0  0
   52.9230  156.3960   27.0600 C   0  0  0  0  0  0  0  0  0  0  0  0
   52.6260  155.0620   27.2920 C   0  0  0  0  0  0  0  0  0  0  0  0
   54.6221  150.0929   25.0193 H   0  0  0  0  0  0  0  0  0  0  0  0
   54.6887  154.3054   24.3629 H   0  0  0  0  0  0  0  0  0  0  0  0
   53.5240  153.7490   23.1146 H   0  0  0  0  0  0  0  0  0  0  0  0
   51.8520  153.6410   24.7160 H   0  0  0  0  0  0  0  0  0  0  0  0
   52.6120  155.1370   24.8860 H   0  0  0  0  0  0  0  0  0  0  0  0
   53.9777  153.5447   26.4217 H   0  0  0  0  0  0  0  0  0  0  0  0
   50.9716  152.8980   26.5589 H   0  0  0  0  0  0  0  0  0  0  0  0
   52.3263  151.8036   26.8919 H   0  0  0  0  0  0  0  0  0  0  0  0
   50.8693  152.8927   28.9409 H   0  0  0  0  0  0  0  0  0  0  0  0
   52.5745  152.6526   29.1722 H   0  0  0  0  0  0  0  0  0  0  0  0
   51.2326  155.2605   30.4179 H   0  0  0  0  0  0  0  0  0  0  0  0
   51.7263  157.6819   29.9991 H   0  0  0  0  0  0  0  0  0  0  0  0
   52.8037  158.3993   27.8688 H   0  0  0  0  0  0  0  0  0  0  0  0
   53.4111  156.7088   26.1252 H   0  0  0  0  0  0  0  0  0  0  0  0
  1  2  3  0
  2  3  1  0
  3  4  1  0
  4  5  1  0
  5  6  1  0
  6  7  1  0
  7  8  1  0
  8  9  2  0
  9 10  1  0
 10 11  2  0
 11 12  1  0
 12 13  2  0
 13  5  1  0
 13  8  1  0
  1 14  1  0
  3 15  1  0
  3 16  1  0
  4 17  1  0
  4 18  1  0
  5 19  1  6
  6 20  1  0
  6 21  1  0
  7 22  1  0
  7 23  1  0
  9 24  1  0
 10 25  1  0
 11 26  1  0
 12 27  1  0
M  CHG  1   4   1
M  END
>  <meeko>  (4) 
{"is_sidechain": [false], "free_energy": -7.602, "intermolecular_energy": -8.529, "internal_energy": -0.134}

$$$$
rasagiline_out
     RDKit          3D

 27 28  0  0  0  0  0  0  0  0999 V2000
   51.7840  158.5170   29.6070 C   0  0  0  0  0  0  0  0  0  0  0  0
   51.3680  157.3910   29.6380 C   0  0  0  0  0  0  0  0  0  0  0  0
   50.8620  156.0130   29.6790 C   0  0  0  0  0  0  0  0  0  0  0  0
   51.9140  155.0980   29.2570 N   0  0  0  0  0  0  0  0  0  0  0  0
   51.5990  154.4300   27.9990 C   0  0  2  0  0  0  0  0  0  0  0  0
   51.8600  152.9070   28.0080 C   0  0  0  0  0  0  0  0  0  0  0  0
   52.1550  152.5130   26.5540 C   0  0  0  0  0  0  0  0  0  0  0  0
   52.8120  153.7590   26.0490 C   0  0  0  0  0  0  0  0  0  0  0  0
   53.5920  153.9100   24.9140 C   0  0  0  0  0  0  0  0  0  0  0  0
   54.0780  155.1850   24.6110 C   0  0  0  0  0  0  0  0  0  0  0  0
   53.7720  156.2820   25.4310 C   0  0  0  0  0  0  0  0  0  0  0  0
   52.9740  156.1210   26.5650 C   0  0  0  0  0  0  0  0  0  0  0  0
   52.5060  154.8510   26.8720 C   0  0  0  0  0  0  0  0  0  0  0  0
   52.1651  159.5485   29.5786 H   0  0  0  0  0  0  0  0  0  0  0  0
   50.5512  155.7666   30.7050 H   0  0  0  0  0  0  0  0  0  0  0  0
   49.9997  155.9182   29.0026 H   0  0  0  0  0  0  0  0  0  0  0  0
   52.0410  154.3910   29.9800 H   0  0  0  0  0  0  0  0  0  0  0  0
   52.7630  155.6450   29.1150 H   0  0  0  0  0  0  0  0  0  0  0  0
   50.5396  154.6965   27.8700 H   0  0  0  0  0  0  0  0  0  0  0  0
   52.7225  152.6720   28.6490 H   0  0  0  0  0  0  0  0  0  0  0  0
   50.9951  152.3550   28.4047 H   0  0  0  0  0  0  0  0  0  0  0  0
   52.8326  151.6482   26.4992 H   0  0  0  0  0  0  0  0  0  0  0  0
   51.2699  152.2020   25.9797 H   0  0  0  0  0  0  0  0  0  0  0  0
   53.8226  153.0496   24.2686 H   0  0  0  0  0  0  0  0  0  0  0  0
   54.7070  155.3301   23.7203 H   0  0  0  0  0  0  0  0  0  0  0  0
   54.1646  157.2779   25.1778 H   0  0  0  0  0  0  0  0  0  0  0  0
   52.7216  156.9820   27.2014 H   0  0  0  0  0  0  0  0  0  0  0  0
  1  2  3  0
  2  3  1  0
  3  4  1  0
  4  5  1  0
  5  6  1  0
  6  7  1  0
  7  8  1  0
  8  9  2  0
  9 10  1  0
 10 11  2  0
 11 12  1  0
 12 13  2  0
 13  5  1  0
 13  8  1  0
  1 14  1  0
  3 15  1  0
  3 16  1  0
  4 17  1  0
  4 18  1  0
  5 19  1  6
  6 20  1  0
  6 21  1  0
  7 22  1  0
  7 23  1  0
  9 24  1  0
 10 25  1  0
 11 26  1  0
 12 27  1  0
M  CHG  1   4   1
M  END
>  <meeko>  (5) 
{"is_sidechain": [false], "free_energy": -7.594, "intermolecular_energy": -8.289, "internal_energy": -0.364}

$$$$
rasagiline_out
     RDKit          3D

 27 28  0  0  0  0  0  0  0  0999 V2000
   55.6420  161.9030   32.2640 C   0  0  0  0  0  0  0  0  0  0  0  0
   54.6500  162.0830   31.6100 C   0  0  0  0  0  0  0  0  0  0  0  0
   53.4380  162.3050   30.8110 C   0  0  0  0  0  0  0  0  0  0  0  0
   52.2650  162.1500   31.6590 N   0  0  0  0  0  0  0  0  0  0  0  0
   51.7410  160.7890   31.6430 C   0  0  2  0  0  0  0  0  0  0  0  0
   51.7790  160.1130   30.2530 C   0  0  0  0  0  0  0  0  0  0  0  0
   50.6420  159.0810   30.2460 C   0  0  0  0  0  0  0  0  0  0  0  0
   49.6450  159.7510   31.1400 C   0  0  0  0  0  0  0  0  0  0  0  0
   48.2940  159.4750   31.2640 C   0  0  0  0  0  0  0  0  0  0  0  0
   47.5530  160.2060   32.1960 C   0  0  0  0  0  0  0  0  0  0  0  0
   48.1680  161.1840   32.9920 C   0  0  0  0  0  0  0  0  0  0  0  0
   49.5340  161.4450   32.8680 C   0  0  0  0  0  0  0  0  0  0  0  0
   50.2640  160.7280   31.9310 C   0  0  0  0  0  0  0  0  0  0  0  0
   56.5500  161.7382   32.8626 H   0  0  0  0  0  0  0  0  0  0  0  0
   53.4560  163.3218   30.3916 H   0  0  0  0  0  0  0  0  0  0  0  0
   53.3986  161.5721   29.9916 H   0  0  0  0  0  0  0  0  0  0  0  0
   51.5370  162.7840   31.3300 H   0  0  0  0  0  0  0  0  0  0  0  0
   52.5420  162.3650   32.6170 H   0  0  0  0  0  0  0  0  0  0  0  0
   52.3820  160.2999   32.3913 H   0  0  0  0  0  0  0  0  0  0  0  0
   51.6204  160.8601   29.4614 H   0  0  0  0  0  0  0  0  0  0  0  0
   52.7529  159.6371   30.0658 H   0  0  0  0  0  0  0  0  0  0  0  0
   50.2396  158.9297   29.2335 H   0  0  0  0  0  0  0  0  0  0  0  0
   50.9406  158.0741   30.5730 H   0  0  0  0  0  0  0  0  0  0  0  0
   47.8167  158.7008   30.6452 H   0  0  0  0  0  0  0  0  0  0  0  0
   46.4758  160.0126   32.3069 H   0  0  0  0  0  0  0  0  0  0  0  0
   47.5687  161.7502   33.7202 H   0  0  0  0  0  0  0  0  0  0  0  0
   50.0209  162.2027   33.4995 H   0  0  0  0  0  0  0  0  0  0  0  0
  1  2  3  0
  2  3  1  0
  3  4  1  0
  4  5  1  0
  5  6  1  0
  6  7  1  0
  7  8  1  0
  8  9  2  0
  9 10  1  0
 10 11  2  0
 11 12  1  0
 12 13  2  0
 13  5  1  0
 13  8  1  0
  1 14  1  0
  3 15  1  0
  3 16  1  0
  4 17  1  0
  4 18  1  0
  5 19  1  1
  6 20  1  0
  6 21  1  0
  7 22  1  0
  7 23  1  0
  9 24  1  0
 10 25  1  0
 11 26  1  0
 12 27  1  0
M  CHG  1   4   1
M  END
>  <meeko>  (6) 
{"is_sidechain": [false], "free_energy": -7.514, "intermolecular_energy": -8.326, "internal_energy": -0.237}

$$$$
rasagiline_out
     RDKit          3D

 27 28  0  0  0  0  0  0  0  0999 V2000
   51.3750  155.5190   29.5480 C   0  0  0  0  0  0  0  0  0  0  0  0
   51.8650  154.6130   28.9310 C   0  0  0  0  0  0  0  0  0  0  0  0
   52.4660  153.5060   28.1750 C   0  0  0  0  0  0  0  0  0  0  0  0
   51.5830  153.1340   27.0790 N   0  0  0  0  0  0  0  0  0  0  0  0
   52.3020  152.9440   25.8250 C   0  0  2  0  0  0  0  0  0  0  0  0
   53.3960  151.8530   25.8810 C   0  0  0  0  0  0  0  0  0  0  0  0
   54.4460  152.2410   24.8310 C   0  0  0  0  0  0  0  0  0  0  0  0
   54.3500  153.7340   24.8710 C   0  0  0  0  0  0  0  0  0  0  0  0
   55.2630  154.6590   24.3930 C   0  0  0  0  0  0  0  0  0  0  0  0
   54.9490  156.0160   24.5040 C   0  0  0  0  0  0  0  0  0  0  0  0
   53.7340  156.4270   25.0740 C   0  0  0  0  0  0  0  0  0  0  0  0
   52.8140  155.4850   25.5400 C   0  0  0  0  0  0  0  0  0  0  0  0
   53.1360  154.1390   25.4430 C   0  0  0  0  0  0  0  0  0  0  0  0
   50.9261  156.3490   30.1133 H   0  0  0  0  0  0  0  0  0  0  0  0
   53.4389  153.8228   27.7712 H   0  0  0  0  0  0  0  0  0  0  0  0
   52.6102  152.6420   28.8404 H   0  0  0  0  0  0  0  0  0  0  0  0
   50.8910  153.8720   26.9500 H   0  0  0  0  0  0  0  0  0  0  0  0
   51.1410  152.2470   27.3220 H   0  0  0  0  0  0  0  0  0  0  0  0
   51.4777  152.7102   25.1352 H   0  0  0  0  0  0  0  0  0  0  0  0
   53.8517  151.8216   26.8817 H   0  0  0  0  0  0  0  0  0  0  0  0
   52.9772  150.8563   25.6780 H   0  0  0  0  0  0  0  0  0  0  0  0
   55.4499  151.8928   25.1155 H   0  0  0  0  0  0  0  0  0  0  0  0
   54.2774  151.8018   23.8367 H   0  0  0  0  0  0  0  0  0  0  0  0
   56.2103  154.3341   23.9380 H   0  0  0  0  0  0  0  0  0  0  0  0
   55.6620  156.7707   24.1406 H   0  0  0  0  0  0  0  0  0  0  0  0
   53.5044  157.4998   25.1544 H   0  0  0  0  0  0  0  0  0  0  0  0
   51.8549  155.8034   25.9745 H   0  0  0  0  0  0  0  0  0  0  0  0
  1  2  3  0
  2  3  1  0
  3  4  1  0
  4  5  1  0
  5  6  1  0
  6  7  1  0
  7  8  1  0
  8  9  2  0
  9 10  1  0
 10 11  2  0
 11 12  1  0
 12 13  2  0
 13  5  1  0
 13  8  1  0
  1 14  1  0
  3 15  1  0
  3 16  1  0
  4 17  1  0
  4 18  1  0
  5 19  1  6
  6 20  1  0
  6 21  1  0
  7 22  1  0
  7 23  1  0
  9 24  1  0
 10 25  1  0
 11 26  1  0
 12 27  1  0
M  CHG  1   4   1
M  END
>  <meeko>  (7) 
{"is_sidechain": [false], "free_energy": -7.375, "intermolecular_energy": -8.198, "internal_energy": -0.211}

$$$$
rasagiline_out
     RDKit          3D

 27 28  0  0  0  0  0  0  0  0999 V2000
   52.5450  155.5200   27.5240 C   0  0  0  0  0  0  0  0  0  0  0  0
   52.6240  156.5360   28.1590 C   0  0  0  0  0  0  0  0  0  0  0  0
   52.7210  157.7780   28.9380 C   0  0  0  0  0  0  0  0  0  0  0  0
   51.4890  157.9750   29.6890 N   0  0  0  0  0  0  0  0  0  0  0  0
   51.1500  159.3850   29.8410 C   0  0  2  0  0  0  0  0  0  0  0  0
   52.1900  160.2040   30.6400 C   0  0  0  0  0  0  0  0  0  0  0  0
   51.4210  161.3670   31.2820 C   0  0  0  0  0  0  0  0  0  0  0  0
   50.0820  160.7350   31.5040 C   0  0  0  0  0  0  0  0  0  0  0  0
   49.0650  161.1670   32.3390 C   0  0  0  0  0  0  0  0  0  0  0  0
   47.8750  160.4370   32.3630 C   0  0  0  0  0  0  0  0  0  0  0  0
   47.7130  159.3040   31.5510 C   0  0  0  0  0  0  0  0  0  0  0  0
   48.7400  158.8850   30.7020 C   0  0  0  0  0  0  0  0  0  0  0  0
   49.9260  159.6030   30.6930 C   0  0  0  0  0  0  0  0  0  0  0  0
   52.4726  154.5892   26.9423 H   0  0  0  0  0  0  0  0  0  0  0  0
   53.5689  157.7086   29.6354 H   0  0  0  0  0  0  0  0  0  0  0  0
   52.8763  158.6278   28.2570 H   0  0  0  0  0  0  0  0  0  0  0  0
   51.6010  157.5640   30.6150 H   0  0  0  0  0  0  0  0  0  0  0  0
   50.7330  157.5280   29.1700 H   0  0  0  0  0  0  0  0  0  0  0  0
   51.0502  159.6991   28.7915 H   0  0  0  0  0  0  0  0  0  0  0  0
   52.6523  159.5778   31.4173 H   0  0  0  0  0  0  0  0  0  0  0  0
   52.9972  160.5697   29.9884 H   0  0  0  0  0  0  0  0  0  0  0  0
   51.8816  161.6815   32.2301 H   0  0  0  0  0  0  0  0  0  0  0  0
   51.3950  162.2839   30.6748 H   0  0  0  0  0  0  0  0  0  0  0  0
   49.1914  162.0615   32.9666 H   0  0  0  0  0  0  0  0  0  0  0  0
   47.0558  160.7534   33.0254 H   0  0  0  0  0  0  0  0  0  0  0  0
   46.7687  158.7408   31.5834 H   0  0  0  0  0  0  0  0  0  0  0  0
   48.6107  158.0049   30.0549 H   0  0  0  0  0  0  0  0  0  0  0  0
  1  2  3  0
  2  3  1  0
  3  4  1  0
  4  5  1  0
  5  6  1  0
  6  7  1  0
  7  8  1  0
  8  9  2  0
  9 10  1  0
 10 11  2  0
 11 12  1  0
 12 13  2  0
 13  5  1  0
 13  8  1  0
  1 14  1  0
  3 15  1  0
  3 16  1  0
  4 17  1  0
  4 18  1  0
  5 19  1  6
  6 20  1  0
  6 21  1  0
  7 22  1  0
  7 23  1  0
  9 24  1  0
 10 25  1  0
 11 26  1  0
 12 27  1  0
M  CHG  1   4   1
M  END
>  <meeko>  (8) 
{"is_sidechain": [false], "free_energy": -7.315, "intermolecular_energy": -8.195, "internal_energy": -0.147}

$$$$
rasagiline_out
     RDKit          3D

 27 28  0  0  0  0  0  0  0  0999 V2000
   51.6090  158.6230   29.6760 C   0  0  0  0  0  0  0  0  0  0  0  0
   51.9290  157.5170   29.3350 C   0  0  0  0  0  0  0  0  0  0  0  0
   52.3230  156.1650   28.9180 C   0  0  0  0  0  0  0  0  0  0  0  0
   52.6990  156.1830   27.5110 N   0  0  0  0  0  0  0  0  0  0  0  0
   52.1650  155.0410   26.7780 C   0  0  2  0  0  0  0  0  0  0  0  0
   51.9180  153.7880   27.6490 C   0  0  0  0  0  0  0  0  0  0  0  0
   52.0470  152.5800   26.7100 C   0  0  0  0  0  0  0  0  0  0  0  0
   53.0640  153.0840   25.7350 C   0  0  0  0  0  0  0  0  0  0  0  0
   53.8330  152.3470   24.8490 C   0  0  0  0  0  0  0  0  0  0  0  0
   54.7000  153.0340   23.9970 C   0  0  0  0  0  0  0  0  0  0  0  0
   54.7800  154.4350   24.0320 C   0  0  0  0  0  0  0  0  0  0  0  0
   53.9910  155.1690   24.9200 C   0  0  0  0  0  0  0  0  0  0  0  0
   53.1410  154.4830   25.7750 C   0  0  0  0  0  0  0  0  0  0  0  0
   51.3159  159.6362   29.9884 H   0  0  0  0  0  0  0  0  0  0  0  0
   53.1787  155.8293   29.5223 H   0  0  0  0  0  0  0  0  0  0  0  0
   51.4789  155.4749   29.0640 H   0  0  0  0  0  0  0  0  0  0  0  0
   53.7170  156.1670   27.4450 H   0  0  0  0  0  0  0  0  0  0  0  0
   52.3100  157.0290   27.0960 H   0  0  0  0  0  0  0  0  0  0  0  0
   51.2472  155.4684   26.3478 H   0  0  0  0  0  0  0  0  0  0  0  0
   52.6674  153.7283   28.4520 H   0  0  0  0  0  0  0  0  0  0  0  0
   50.9272  153.8206   28.1256 H   0  0  0  0  0  0  0  0  0  0  0  0
   52.4072  151.6890   27.2451 H   0  0  0  0  0  0  0  0  0  0  0  0
   51.1000  152.2583   26.2520 H   0  0  0  0  0  0  0  0  0  0  0  0
   53.7624  151.2497   24.8176 H   0  0  0  0  0  0  0  0  0  0  0  0
   55.3274  152.4710   23.2904 H   0  0  0  0  0  0  0  0  0  0  0  0
   55.4700  154.9590   23.3543 H   0  0  0  0  0  0  0  0  0  0  0  0
   54.0424  156.2676   24.9411 H   0  0  0  0  0  0  0  0  0  0  0  0
  1  2  3  0
  2  3  1  0
  3  4  1  0
  4  5  1  0
  5  6  1  0
  6  7  1  0
  7  8  1  0
  8  9  2  0
  9 10  1  0
 10 11  2  0
 11 12  1  0
 12 13  2  0
 13  5  1  0
 13  8  1  0
  1 14  1  0
  3 15  1  0
  3 16  1  0
  4 17  1  0
  4 18  1  0
  5 19  1  6
  6 20  1  0
  6 21  1  0
  7 22  1  0
  7 23  1  0
  9 24  1  0
 10 25  1  0
 11 26  1  0
 12 27  1  0
M  CHG  1   4   1
M  END
>  <meeko>  (9) 
{"is_sidechain": [false], "free_energy": -7.295, "intermolecular_energy": -8.137, "internal_energy": -0.183}

$$$$
