isatin_out
     RDKit          3D

 16 17  0  0  0  0  0  0  0  0999 V2000
   51.0890  154.7610   28.2920 O   0  0  0  0  0  0  0  0  0  0  0  0
   51.7250  154.2070   27.4220 C   0  0  0  0  0  0  0  0  0  0  0  0
   52.2760  154.7610   26.2840 N   0  0  0  0  0  0  0  0  0  0  0  0
   52.9340  153.7950   25.5290 C   0  0  0  0  0  0  0  0  0  0  0  0
   53.5990  153.9790   24.3350 C   0  0  0  0  0  0  0  0  0  0  0  0
   54.1920  152.8540   23.7500 C   0  0  0  0  0  0  0  0  0  0  0  0
   54.1110  151.5850   24.3600 C   0  0  0  0  0  0  0  0  0  0  0  0
   53.4340  151.4150   25.5700 C   0  0  0  0  0  0  0  0  0  0  0  0
   52.8580  152.5390   26.1260 C   0  0  0  0  0  0  0  0  0  0  0  0
   52.0920  152.6970   27.3640 C   0  0  0  0  0  0  0  0  0  0  0  0
   51.8090  151.8370   28.1650 O   0  0  0  0  0  0  0  0  0  0  0  0
   52.2110  155.7130   26.0390 H   0  0  0  0  0  0  0  0  0  0  0  0
   53.6610  154.9699   23.8614 H   0  0  0  0  0  0  0  0  0  0  0  0
   54.7310  152.9617   22.7972 H   0  0  0  0  0  0  0  0  0  0  0  0
   54.5867  150.7187   23.8771 H   0  0  0  0  0  0  0  0  0  0  0  0
   53.3633  150.4311   26.0569 H   0  0  0  0  0  0  0  0  0  0  0  0
  1  2  2  0
  2  3  1  0
  3  4  1  0
  4  5  2  0
  5  6  1  0
  6  7  2  0
  7  8  1  0
  8  9  2  0
  9 10  1  0
 10 11  2  0
 10  2  1  0
  9  4  1  0
  3 12  1  0
  5 13  1  0
  6 14  1  0
  7 15  1  0
  8 16  1  0
M  END
>  <meeko>  (1) 
{"is_sidechain": [false], "free_energy": -7.285, "intermolecular_energy": -7.285, "internal_energy": 0.0}

$$$$
isatin_out
     RDKit          3D

 16 17  0  0  0  0  0  0  0  0999 V2000
   54.4300  150.4520   24.8040 O   0  0  0  0  0  0  0  0  0  0  0  0
   54.2440  151.6380   24.9650 C   0  0  0  0  0  0  0  0  0  0  0  0
   54.8880  152.6930   24.3500 N   0  0  0  0  0  0  0  0  0  0  0  0
   54.3900  153.9110   24.8020 C   0  0  0  0  0  0  0  0  0  0  0  0
   54.7900  155.1720   24.4140 C   0  0  0  0  0  0  0  0  0  0  0  0
   54.1430  156.2630   25.0070 C   0  0  0  0  0  0  0  0  0  0  0  0
   53.1230  156.0760   25.9630 C   0  0  0  0  0  0  0  0  0  0  0  0
   52.7290  154.7920   26.3460 C   0  0  0  0  0  0  0  0  0  0  0  0
   53.3820  153.7330   25.7470 C   0  0  0  0  0  0  0  0  0  0  0  0
   53.2090  152.2900   25.9250 C   0  0  0  0  0  0  0  0  0  0  0  0
   52.4290  151.7320   26.6600 O   0  0  0  0  0  0  0  0  0  0  0  0
   55.6050  152.5960   23.6810 H   0  0  0  0  0  0  0  0  0  0  0  0
   55.5858  155.3153   23.6682 H   0  0  0  0  0  0  0  0  0  0  0  0
   54.4355  157.2844   24.7221 H   0  0  0  0  0  0  0  0  0  0  0  0
   52.6320  156.9518   26.4123 H   0  0  0  0  0  0  0  0  0  0  0  0
   51.9352  154.6318   27.0904 H   0  0  0  0  0  0  0  0  0  0  0  0
  1  2  2  0
  2  3  1  0
  3  4  1  0
  4  5  2  0
  5  6  1  0
  6  7  2  0
  7  8  1  0
  8  9  2  0
  9 10  1  0
 10 11  2  0
 10  2  1  0
  9  4  1  0
  3 12  1  0
  5 13  1  0
  6 14  1  0
  7 15  1  0
  8 16  1  0
M  END
>  <meeko>  (2) 
{"is_sidechain": [false], "free_energy": -7.209, "intermolecular_energy": -7.209, "internal_energy": 0.0}

$$$$
isatin_out
     RDKit          3D

 16 17  0  0  0  0  0  0  0  0999 V2000
   51.8750  154.0370   29.0330 O   0  0  0  0  0  0  0  0  0  0  0  0
   52.3390  153.7290   27.9580 C   0  0  0  0  0  0  0  0  0  0  0  0
   52.6670  152.4690   27.4990 N   0  0  0  0  0  0  0  0  0  0  0  0
   53.1770  152.5270   26.2060 C   0  0  0  0  0  0  0  0  0  0  0  0
   53.6080  151.4720   25.4300 C   0  0  0  0  0  0  0  0  0  0  0  0
   54.0850  151.7690   24.1480 C   0  0  0  0  0  0  0  0  0  0  0  0
   54.1220  153.0960   23.6710 C   0  0  0  0  0  0  0  0  0  0  0  0
   53.6810  154.1550   24.4690 C   0  0  0  0  0  0  0  0  0  0  0  0
   53.2150  153.8350   25.7290 C   0  0  0  0  0  0  0  0  0  0  0  0
   52.6920  154.6960   26.7920 C   0  0  0  0  0  0  0  0  0  0  0  0
   52.5640  155.8980   26.7640 O   0  0  0  0  0  0  0  0  0  0  0  0
   52.5560  151.6400   28.0190 H   0  0  0  0  0  0  0  0  0  0  0  0
   53.5782  150.4378   25.8036 H   0  0  0  0  0  0  0  0  0  0  0  0
   54.4375  150.9526   23.5006 H   0  0  0  0  0  0  0  0  0  0  0  0
   54.5024  153.2995   22.6591 H   0  0  0  0  0  0  0  0  0  0  0  0
   53.7040  155.1946   24.1104 H   0  0  0  0  0  0  0  0  0  0  0  0
  1  2  2  0
  2  3  1  0
  3  4  1  0
  4  5  2  0
  5  6  1  0
  6  7  2  0
  7  8  1  0
  8  9  2  0
  9 10  1  0
 10 11  2  0
 10  2  1  0
  9  4  1  0
  3 12  1  0
  5 13  1  0
  6 14  1  0
  7 15  1  0
  8 16  1  0
M  END
>  <meeko>  (3) 
{"is_sidechain": [false], "free_energy": -7.004, "intermolecular_energy": -7.004, "internal_energy": 0.0}

$$$$
isatin_out
     RDKit          3D

 16 17  0  0  0  0  0  0  0  0999 V2000
   52.1360  150.9350   26.6520 O   0  0  0  0  0  0  0  0  0  0  0  0
   52.6020  151.9750   26.2420 C   0  0  0  0  0  0  0  0  0  0  0  0
   52.1450  153.2600   26.4610 N   0  0  0  0  0  0  0  0  0  0  0  0
   52.9550  154.1910   25.8190 C   0  0  0  0  0  0  0  0  0  0  0  0
   52.8070  155.5620   25.8130 C   0  0  0  0  0  0  0  0  0  0  0  0
   53.7490  156.3070   25.0940 C   0  0  0  0  0  0  0  0  0  0  0  0
   54.8060  155.6780   24.4030 C   0  0  0  0  0  0  0  0  0  0  0  0
   54.9420  154.2880   24.4190 C   0  0  0  0  0  0  0  0  0  0  0  0
   54.0010  153.5760   25.1350 C   0  0  0  0  0  0  0  0  0  0  0  0
   53.8630  152.1340   25.3460 C   0  0  0  0  0  0  0  0  0  0  0  0
   54.5780  151.2590   24.9150 O   0  0  0  0  0  0  0  0  0  0  0  0
   51.3520  153.4850   26.9990 H   0  0  0  0  0  0  0  0  0  0  0  0
   51.9817  156.0506   26.3517 H   0  0  0  0  0  0  0  0  0  0  0  0
   53.6635  157.4034   25.0672 H   0  0  0  0  0  0  0  0  0  0  0  0
   55.5311  156.2890   23.8454 H   0  0  0  0  0  0  0  0  0  0  0  0
   55.7613  153.7839   23.8855 H   0  0  0  0  0  0  0  0  0  0  0  0
  1  2  2  0
  2  3  1  0
  3  4  1  0
  4  5  2  0
  5  6  1  0
  6  7  2  0
  7  8  1  0
  8  9  2  0
  9 10  1  0
 10 11  2  0
 10  2  1  0
  9  4  1  0
  3 12  1  0
  5 13  1  0
  6 14  1  0
  7 15  1  0
  8 16  1  0
M  END
>  <meeko>  (4) 
{"is_sidechain": [false], "free_energy": -6.965, "intermolecular_energy": -6.965, "internal_energy": 0.0}

$$$$
isatin_out
     RDKit          3D

 16 17  0  0  0  0  0  0  0  0999 V2000
   54.1330  150.7240   24.6460 O   0  0  0  0  0  0  0  0  0  0  0  0
   53.8750  151.8190   25.0930 C   0  0  0  0  0  0  0  0  0  0  0  0
   53.4140  152.1380   26.3560 N   0  0  0  0  0  0  0  0  0  0  0  0
   53.2360  153.5120   26.4880 C   0  0  0  0  0  0  0  0  0  0  0  0
   52.7900  154.1920   27.6010 C   0  0  0  0  0  0  0  0  0  0  0  0
   52.6890  155.5850   27.5050 C   0  0  0  0  0  0  0  0  0  0  0  0
   53.0300  156.2630   26.3150 C   0  0  0  0  0  0  0  0  0  0  0  0
   53.4810  155.5590   25.1960 C   0  0  0  0  0  0  0  0  0  0  0  0
   53.5720  154.1870   25.3160 C   0  0  0  0  0  0  0  0  0  0  0  0
   54.0000  153.1770   24.3460 C   0  0  0  0  0  0  0  0  0  0  0  0
   54.3710  153.3640   23.2110 O   0  0  0  0  0  0  0  0  0  0  0  0
   53.2340  151.4810   27.0660 H   0  0  0  0  0  0  0  0  0  0  0  0
   52.5242  153.6615   28.5272 H   0  0  0  0  0  0  0  0  0  0  0  0
   52.3374  156.1618   28.3731 H   0  0  0  0  0  0  0  0  0  0  0  0
   52.9396  157.3583   26.2682 H   0  0  0  0  0  0  0  0  0  0  0  0
   53.7511  156.0742   24.2624 H   0  0  0  0  0  0  0  0  0  0  0  0
  1  2  2  0
  2  3  1  0
  3  4  1  0
  4  5  2  0
  5  6  1  0
  6  7  2  0
  7  8  1  0
  8  9  2  0
  9 10  1  0
 10 11  2  0
 10  2  1  0
  9  4  1  0
  3 12  1  0
  5 13  1  0
  6 14  1  0
  7 15  1  0
  8 16  1  0
M  END
>  <meeko>  (5) 
{"is_sidechain": [false], "free_energy": -6.87, "intermolecular_energy": -6.87, "internal_energy": 0.0}

$$$$
isatin_out
     RDKit          3D

 16 17  0  0  0  0  0  0  0  0999 V2000
   51.8890  151.4910   27.3680 O   0  0  0  0  0  0  0  0  0  0  0  0
   52.4080  152.4490   26.8390 C   0  0  0  0  0  0  0  0  0  0  0  0
   53.4430  152.4630   25.9250 N   0  0  0  0  0  0  0  0  0  0  0  0
   53.7580  153.7660   25.5500 C   0  0  0  0  0  0  0  0  0  0  0  0
   54.7330  154.1660   24.6610 C   0  0  0  0  0  0  0  0  0  0  0  0
   54.8720  155.5400   24.4350 C   0  0  0  0  0  0  0  0  0  0  0  0
   54.0450  156.4760   25.0920 C   0  0  0  0  0  0  0  0  0  0  0  0
   53.0620  156.0550   25.9900 C   0  0  0  0  0  0  0  0  0  0  0  0
   52.9450  154.6950   26.1950 C   0  0  0  0  0  0  0  0  0  0  0  0
   52.0310  153.9420   27.0570 C   0  0  0  0  0  0  0  0  0  0  0  0
   51.1720  154.3890   27.7800 O   0  0  0  0  0  0  0  0  0  0  0  0
   53.8980  151.6590   25.5850 H   0  0  0  0  0  0  0  0  0  0  0  0
   55.3759  153.4343   24.1498 H   0  0  0  0  0  0  0  0  0  0  0  0
   55.6397  155.8969   23.7326 H   0  0  0  0  0  0  0  0  0  0  0  0
   54.1763  157.5501   24.8943 H   0  0  0  0  0  0  0  0  0  0  0  0
   52.4113  156.7736   26.5098 H   0  0  0  0  0  0  0  0  0  0  0  0
  1  2  2  0
  2  3  1  0
  3  4  1  0
  4  5  2  0
  5  6  1  0
  6  7  2  0
  7  8  1  0
  8  9  2  0
  9 10  1  0
 10 11  2  0
 10  2  1  0
  9  4  1  0
  3 12  1  0
  5 13  1  0
  6 14  1  0
  7 15  1  0
  8 16  1  0
M  END
>  <meeko>  (6) 
{"is_sidechain": [false], "free_energy": -6.826, "intermolecular_energy": -6.826, "internal_energy": 0.0}

$$$$
isatin_out
     RDKit          3D

 16 17  0  0  0  0  0  0  0  0999 V2000
   53.4300  161.5120   30.5050 O   0  0  0  0  0  0  0  0  0  0  0  0
   52.3140  161.2100   30.8650 C   0  0  0  0  0  0  0  0  0  0  0  0
   51.4890  161.8850   31.7430 N   0  0  0  0  0  0  0  0  0  0  0  0
   50.2780  161.2170   31.9010 C   0  0  0  0  0  0  0  0  0  0  0  0
   49.2160  161.5920   32.6950 C   0  0  0  0  0  0  0  0  0  0  0  0
   48.0900  160.7600   32.6980 C   0  0  0  0  0  0  0  0  0  0  0  0
   48.0470  159.5860   31.9170 C   0  0  0  0  0  0  0  0  0  0  0  0
   49.1320  159.2200   31.1170 C   0  0  0  0  0  0  0  0  0  0  0  0
   50.2300  160.0560   31.1320 C   0  0  0  0  0  0  0  0  0  0  0  0
   51.5050  159.9590   30.4190 C   0  0  0  0  0  0  0  0  0  0  0  0
   51.8500  159.0910   29.6510 O   0  0  0  0  0  0  0  0  0  0  0  0
   51.7270  162.7250   32.1970 H   0  0  0  0  0  0  0  0  0  0  0  0
   49.2515  162.5085   33.3022 H   0  0  0  0  0  0  0  0  0  0  0  0
   47.2232  161.0265   33.3206 H   0  0  0  0  0  0  0  0  0  0  0  0
   47.1487  158.9515   31.9382 H   0  0  0  0  0  0  0  0  0  0  0  0
   49.1122  158.3074   30.5032 H   0  0  0  0  0  0  0  0  0  0  0  0
  1  2  2  0
  2  3  1  0
  3  4  1  0
  4  5  2  0
  5  6  1  0
  6  7  2  0
  7  8  1  0
  8  9  2  0
  9 10  1  0
 10 11  2  0
 10  2  1  0
  9  4  1  0
  3 12  1  0
  5 13  1  0
  6 14  1  0
  7 15  1  0
  8 16  1  0
M  END
>  <meeko>  (7) 
{"is_sidechain": [false], "free_energy": -6.8, "intermolecular_energy": -6.8, "internal_energy": 0.0}

$$$$
isatin_out
     RDKit          3D

 16 17  0  0  0  0  0  0  0  0999 V2000
   53.0440  153.9730   24.2450 O   0  0  0  0  0  0  0  0  0  0  0  0
   52.7800  154.5110   25.2980 C   0  0  0  0  0  0  0  0  0  0  0  0
   51.9500  154.0560   26.3040 N   0  0  0  0  0  0  0  0  0  0  0  0
   51.9050  154.9630   27.3590 C   0  0  0  0  0  0  0  0  0  0  0  0
   51.1850  154.8460   28.5290 C   0  0  0  0  0  0  0  0  0  0  0  0
   51.2920  155.8890   29.4560 C   0  0  0  0  0  0  0  0  0  0  0  0
   52.1060  157.0140   29.2010 C   0  0  0  0  0  0  0  0  0  0  0  0
   52.8290  157.1170   28.0100 C   0  0  0  0  0  0  0  0  0  0  0  0
   52.7060  156.0750   27.1130 C   0  0  0  0  0  0  0  0  0  0  0  0
   53.3200  155.8810   25.7980 C   0  0  0  0  0  0  0  0  0  0  0  0
   54.0820  156.6260   25.2290 O   0  0  0  0  0  0  0  0  0  0  0  0
   51.4560  153.2050   26.2780 H   0  0  0  0  0  0  0  0  0  0  0  0
   50.5520  153.9682   28.7259 H   0  0  0  0  0  0  0  0  0  0  0  0
   50.7315  155.8312   30.4007 H   0  0  0  0  0  0  0  0  0  0  0  0
   52.1717  157.8184   29.9484 H   0  0  0  0  0  0  0  0  0  0  0  0
   53.4665  157.9878   27.7970 H   0  0  0  0  0  0  0  0  0  0  0  0
  1  2  2  0
  2  3  1  0
  3  4  1  0
  4  5  2  0
  5  6  1  0
  6  7  2  0
  7  8  1  0
  8  9  2  0
  9 10  1  0
 10 11  2  0
 10  2  1  0
  9  4  1  0
  3 12  1  0
  5 13  1  0
  6 14  1  0
  7 15  1  0
  8 16  1  0
M  END
>  <meeko>  (8) 
{"is_sidechain": [false], "free_energy": -6.797, "intermolecular_energy": -6.797, "internal_energy": 0.0}

$$$$
isatin_out
     RDKit          3D

 16 17  0  0  0  0  0  0  0  0999 V2000
   53.0180  156.8680   28.8180 O   0  0  0  0  0  0  0  0  0  0  0  0
   52.1840  157.5870   29.3220 C   0  0  0  0  0  0  0  0  0  0  0  0
   52.3040  158.9170   29.6750 N   0  0  0  0  0  0  0  0  0  0  0  0
   51.1190  159.3940   30.2280 C   0  0  0  0  0  0  0  0  0  0  0  0
   50.8690  160.6670   30.6940 C   0  0  0  0  0  0  0  0  0  0  0  0
   49.5940  160.9230   31.2130 C   0  0  0  0  0  0  0  0  0  0  0  0
   48.6070  159.9150   31.2560 C   0  0  0  0  0  0  0  0  0  0  0  0
   48.8760  158.6300   30.7800 C   0  0  0  0  0  0  0  0  0  0  0  0
   50.1400  158.4040   30.2740 C   0  0  0  0  0  0  0  0  0  0  0  0
   50.7300  157.1890   29.7080 C   0  0  0  0  0  0  0  0  0  0  0  0
   50.1990  156.1120   29.5720 O   0  0  0  0  0  0  0  0  0  0  0  0
   53.1190  159.4550   29.5520 H   0  0  0  0  0  0  0  0  0  0  0  0
   51.6404  161.4505   30.6595 H   0  0  0  0  0  0  0  0  0  0  0  0
   49.3574  161.9274   31.5939 H   0  0  0  0  0  0  0  0  0  0  0  0
   47.6138  160.1444   31.6695 H   0  0  0  0  0  0  0  0  0  0  0  0
   48.1161  157.8352   30.8071 H   0  0  0  0  0  0  0  0  0  0  0  0
  1  2  2  0
  2  3  1  0
  3  4  1  0
  4  5  2  0
  5  6  1  0
  6  7  2  0
  7  8  1  0
  8  9  2  0
  9 10  1  0
 10 11  2  0
 10  2  1  0
  9  4  1  0
  3 12  1  0
  5 13  1  0
  6 14  1  0
  7 15  1  0
  8 16  1  0
M  END
>  <meeko>  (9) 
{"is_sidechain": [false], "free_energy": -6.753, "intermolecular_energy": -6.753, "internal_energy": 0.0}

$$$$
