rasagiline_out
     RDKit          3D

 27 28  0  0  0  0  0  0  0  0999 V2000
   54.0960  149.3630   24.7220 C   0  0  0  0  0  0  0  0  0  0  0  0
   54.0640  150.5640   24.7080 C   0  0  0  0  0  0  0  0  0  0  0  0
   54.0280  152.0320   24.6930 C   0  0  0  0  0  0  0  0  0  0  0  0
   53.0840  152.5020   25.6980 N   0  0  0  0  0  0  0  0  0  0  0  0
   52.6900  153.8900   25.4850 C   0  0  2  0  0  0  0  0  0  0  0  0
   53.7960  154.7740   24.8640 C   0  0  0  0  0  0  0  0  0  0  0  0
   53.5160  156.2080   25.3370 C   0  0  0  0  0  0  0  0  0  0  0  0
   52.9090  155.9510   26.6810 C   0  0  0  0  0  0  0  0  0  0  0  0
   52.7470  156.8440   27.7270 C   0  0  0  0  0  0  0  0  0  0  0  0
   52.1150  156.3950   28.8890 C   0  0  0  0  0  0  0  0  0  0  0  0
   51.6470  155.0750   28.9850 C   0  0  0  0  0  0  0  0  0  0  0  0
   51.8030  154.1870   27.9190 C   0  0  0  0  0  0  0  0  0  0  0  0
   52.4450  154.6320   26.7730 C   0  0  0  0  0  0  0  0  0  0  0  0
   54.1253  148.2635   24.7348 H   0  0  0  0  0  0  0  0  0  0  0  0
   55.0301  152.4262   24.9176 H   0  0  0  0  0  0  0  0  0  0  0  0
   53.7121  152.3822   23.6992 H   0  0  0  0  0  0  0  0  0  0  0  0
   53.5190  152.4230   26.6170 H   0  0  0  0  0  0  0  0  0  0  0  0
   52.2450  151.9270   25.6310 H   0  0  0  0  0  0  0  0  0  0  0  0
   51.8062  153.7690   24.8413 H   0  0  0  0  0  0  0  0  0  0  0  0
   54.7866  154.4449   25.2109 H   0  0  0  0  0  0  0  0  0  0  0  0
   53.7929  154.7068   23.7661 H   0  0  0  0  0  0  0  0  0  0  0  0
   54.4427  156.7951   25.4177 H   0  0  0  0  0  0  0  0  0  0  0  0
   52.8808  156.7944   24.6568 H   0  0  0  0  0  0  0  0  0  0  0  0
   53.1068  157.8803   27.6449 H   0  0  0  0  0  0  0  0  0  0  0  0
   51.9827  157.0827   29.7373 H   0  0  0  0  0  0  0  0  0  0  0  0
   51.1531  154.7374   29.9081 H   0  0  0  0  0  0  0  0  0  0  0  0
   51.4248  153.1563   27.9866 H   0  0  0  0  0  0  0  0  0  0  0  0
  1  2  3  0
  2  3  1  0
  3  4  1  0
  4  5  1  0
  5  6  1  0
  6  7  1  0
  7  8  1  0
  8  9  2  0
  9 10  1  0
 10 11  2  0
 11 12  1  0
 12 13  2  0
 13  5  1  0
 13  8  1  0
  1 14  1  0
  3 15  1  0
  3 16  1  0
  4 17  1  0
  4 18  1  0
  5 19  1  6
  6 20  1  0
  6 21  1  0
  7 22  1  0
  7 23  1  0
  9 24  1  0
 10 25  1  0
 11 26  1  0
 12 27  1  0
M  CHG  1   4   1
M  END
>  <meeko>  (1) 
{"is_sidechain": [false], "free_energy": -8.371, "intermolecular_energy": -9.349, "internal_energy": -0.169}

$$$$
rasagiline_out
     RDKit          3D

 27 28  0  0  0  0  0  0  0  0999 V2000
   54.1310  150.0210   24.7950 C   0  0  0  0  0  0  0  0  0  0  0  0
   54.1100  151.1300   24.3340 C   0  0  0  0  0  0  0  0  0  0  0  0
   54.0860  152.4850   23.7700 C   0  0  0  0  0  0  0  0  0  0  0  0
   54.5240  153.4370   24.7810 N   0  0  0  0  0  0  0  0  0  0  0  0
   53.5080  154.4390   25.0810 C   0  0  2  0  0  0  0  0  0  0  0  0
   54.0470  155.8850   25.1580 C   0  0  0  0  0  0  0  0  0  0  0  0
   53.1070  156.6450   26.1070 C   0  0  0  0  0  0  0  0  0  0  0  0
   52.7010  155.5490   27.0410 C   0  0  0  0  0  0  0  0  0  0  0  0
   52.1270  155.6690   28.2960 C   0  0  0  0  0  0  0  0  0  0  0  0
   51.7910  154.5010   28.9850 C   0  0  0  0  0  0  0  0  0  0  0  0
   52.0210  153.2410   28.4120 C   0  0  0  0  0  0  0  0  0  0  0  0
   52.5880  153.1310   27.1410 C   0  0  0  0  0  0  0  0  0  0  0  0
   52.9340  154.2920   26.4660 C   0  0  0  0  0  0  0  0  0  0  0  0
   54.1502  149.0054   25.2172 H   0  0  0  0  0  0  0  0  0  0  0  0
   54.7611  152.5337   22.9029 H   0  0  0  0  0  0  0  0  0  0  0  0
   53.0628  152.7323   23.4509 H   0  0  0  0  0  0  0  0  0  0  0  0
   55.3610  153.9120   24.4420 H   0  0  0  0  0  0  0  0  0  0  0  0
   54.7110  152.9170   25.6390 H   0  0  0  0  0  0  0  0  0  0  0  0
   52.7937  154.2766   24.2604 H   0  0  0  0  0  0  0  0  0  0  0  0
   55.0730  155.8885   25.5545 H   0  0  0  0  0  0  0  0  0  0  0  0
   54.0767  156.3544   24.1636 H   0  0  0  0  0  0  0  0  0  0  0  0
   53.6334  157.4530   26.6362 H   0  0  0  0  0  0  0  0  0  0  0  0
   52.2675  157.1500   25.6068 H   0  0  0  0  0  0  0  0  0  0  0  0
   51.9405  156.6586   28.7387 H   0  0  0  0  0  0  0  0  0  0  0  0
   51.3417  154.5698   29.9867 H   0  0  0  0  0  0  0  0  0  0  0  0
   51.7521  152.3316   28.9693 H   0  0  0  0  0  0  0  0  0  0  0  0
   52.7567  152.1444   26.6847 H   0  0  0  0  0  0  0  0  0  0  0  0
  1  2  3  0
  2  3  1  0
  3  4  1  0
  4  5  1  0
  5  6  1  0
  6  7  1  0
  7  8  1  0
  8  9  2  0
  9 10  1  0
 10 11  2  0
 11 12  1  0
 12 13  2  0
 13  5  1  0
 13  8  1  0
  1 14  1  0
  3 15  1  0
  3 16  1  0
  4 17  1  0
  4 18  1  0
  5 19  1  6
  6 20  1  0
  6 21  1  0
  7 22  1  0
  7 23  1  0
  9 24  1  0
 10 25  1  0
 11 26  1  0
 12 27  1  0
M  CHG  1   4   1
M  END
>  <meeko>  (2) 
{"is_sidechain": [false], "free_energy": -7.858, "intermolecular_energy": -8.6, "internal_energy": -0.347}

$$$$
rasagiline_out
     RDKit          3D

 27 28  0  0  0  0  0  0  0  0999 V2000
   52.2630  157.5000   29.2200 C   0  0  0  0  0  0  0  0  0  0  0  0
   51.9090  156.3780   28.9810 C   0  0  0  0  0  0  0  0  0  0  0  0
   51.4780  155.0050   28.6900 C   0  0  0  0  0  0  0  0  0  0  0  0
   51.5020  154.7860   27.2500 N   0  0  0  0  0  0  0  0  0  0  0  0
   52.8550  154.8090   26.7060 C   0  0  2  0  0  0  0  0  0  0  0  0
   53.0740  155.8630   25.5970 C   0  0  0  0  0  0  0  0  0  0  0  0
   54.2040  155.3230   24.7080 C   0  0  0  0  0  0  0  0  0  0  0  0
   53.9770  153.8480   24.8230 C   0  0  0  0  0  0  0  0  0  0  0  0
   54.4620  152.8460   24.0010 C   0  0  0  0  0  0  0  0  0  0  0  0
   54.1530  151.5210   24.3200 C   0  0  0  0  0  0  0  0  0  0  0  0
   53.3810  151.2180   25.4520 C   0  0  0  0  0  0  0  0  0  0  0  0
   52.9080  152.2360   26.2820 C   0  0  0  0  0  0  0  0  0  0  0  0
   53.2040  153.5510   25.9540 C   0  0  0  0  0  0  0  0  0  0  0  0
   52.5874  158.5280   29.4390 H   0  0  0  0  0  0  0  0  0  0  0  0
   52.1594  154.2945   29.1808 H   0  0  0  0  0  0  0  0  0  0  0  0
   50.4564  154.8523   29.0682 H   0  0  0  0  0  0  0  0  0  0  0  0
   50.9560  155.5190   26.7980 H   0  0  0  0  0  0  0  0  0  0  0  0
   51.1100  153.8610   27.0690 H   0  0  0  0  0  0  0  0  0  0  0  0
   53.4508  154.9904   27.6127 H   0  0  0  0  0  0  0  0  0  0  0  0
   52.1543  155.9928   25.0076 H   0  0  0  0  0  0  0  0  0  0  0  0
   53.3332  156.8438   26.0224 H   0  0  0  0  0  0  0  0  0  0  0  0
   54.1003  155.6679   23.6686 H   0  0  0  0  0  0  0  0  0  0  0  0
   55.2110  155.6515   25.0047 H   0  0  0  0  0  0  0  0  0  0  0  0
   55.0747  153.0862   23.1196 H   0  0  0  0  0  0  0  0  0  0  0  0
   54.5188  150.7069   23.6770 H   0  0  0  0  0  0  0  0  0  0  0  0
   53.1465  150.1694   25.6874 H   0  0  0  0  0  0  0  0  0  0  0  0
   52.3133  152.0004   27.1769 H   0  0  0  0  0  0  0  0  0  0  0  0
  1  2  3  0
  2  3  1  0
  3  4  1  0
  4  5  1  0
  5  6  1  0
  6  7  1  0
  7  8  1  0
  8  9  2  0
  9 10  1  0
 10 11  2  0
 11 12  1  0
 12 13  2  0
 13  5  1  0
 13  8  1  0
  1 14  1  0
  3 15  1  0
  3 16  1  0
  4 17  1  0
  4 18  1  0
  5 19  1  1
  6 20  1  0
  6 21  1  0
  7 22  1  0
  7 23  1  0
  9 24  1  0
 10 25  1  0
 11 26  1  0
 12 27  1  0
M  CHG  1   4   1
M  END
>  <meeko>  (3) 
{"is_sidechain": [false], "free_energy": -7.81, "intermolecular_energy": -8.588, "internal_energy": -0.305}

$$$$
rasagiline_out
     RDKit          3D

 27 28  0  0  0  0  0  0  0  0999 V2000
   54.1430  150.0630   24.7600 C   0  0  0  0  0  0  0  0  0  0  0  0
   54.1270  151.2180   24.4320 C   0  0  0  0  0  0  0  0  0  0  0  0
   54.1080  152.6310   24.0330 C   0  0  0  0  0  0  0  0  0  0  0  0
   53.0130  153.3110   24.7110 N   0  0  0  0  0  0  0  0  0  0  0  0
   53.1600  153.2910   26.1620 C   0  0  2  0  0  0  0  0  0  0  0  0
   52.0910  152.4500   26.8960 C   0  0  0  0  0  0  0  0  0  0  0  0
   51.9490  153.0620   28.2970 C   0  0  0  0  0  0  0  0  0  0  0  0
   52.2370  154.5020   28.0080 C   0  0  0  0  0  0  0  0  0  0  0  0
   51.9470  155.6030   28.7970 C   0  0  0  0  0  0  0  0  0  0  0  0
   52.3440  156.8640   28.3450 C   0  0  0  0  0  0  0  0  0  0  0  0
   53.0280  157.0060   27.1270 C   0  0  0  0  0  0  0  0  0  0  0  0
   53.3280  155.8880   26.3460 C   0  0  0  0  0  0  0  0  0  0  0  0
   52.9190  154.6390   26.7910 C   0  0  0  0  0  0  0  0  0  0  0  0
   54.1577  149.0049   25.0605 H   0  0  0  0  0  0  0  0  0  0  0  0
   55.0616  153.1036   24.3110 H   0  0  0  0  0  0  0  0  0  0  0  0
   53.9673  152.7033   22.9444 H   0  0  0  0  0  0  0  0  0  0  0  0
   52.1380  152.8480   24.4650 H   0  0  0  0  0  0  0  0  0  0  0  0
   53.0170  154.2860   24.4110 H   0  0  0  0  0  0  0  0  0  0  0  0
   54.1823  152.9001   26.2720 H   0  0  0  0  0  0  0  0  0  0  0  0
   51.1321  152.5003   26.3593 H   0  0  0  0  0  0  0  0  0  0  0  0
   52.3830  151.3908   26.9499 H   0  0  0  0  0  0  0  0  0  0  0  0
   50.9335  152.9252   28.6969 H   0  0  0  0  0  0  0  0  0  0  0  0
   52.6035  152.6117   29.0578 H   0  0  0  0  0  0  0  0  0  0  0  0
   51.4179  155.4875   29.7545 H   0  0  0  0  0  0  0  0  0  0  0  0
   52.1184  157.7548   28.9496 H   0  0  0  0  0  0  0  0  0  0  0  0
   53.3302  158.0068   26.7850 H   0  0  0  0  0  0  0  0  0  0  0  0
   53.8766  155.9951   25.3986 H   0  0  0  0  0  0  0  0  0  0  0  0
  1  2  3  0
  2  3  1  0
  3  4  1  0
  4  5  1  0
  5  6  1  0
  6  7  1  0
  7  8  1  0
  8  9  2  0
  9 10  1  0
 10 11  2  0
 11 12  1  0
 12 13  2  0
 13  5  1  0
 13  8  1  0
  1 14  1  0
  3 15  1  0
  3 16  1  0
  4 17  1  0
  4 18  1  0
  5 19  1  6
  6 20  1  0
  6 21  1  0
  7 22  1  0
  7 23  1  0
  9 24  1  0
 10 25  1  0
 11 26  1  0
 12 27  1  0
M  CHG  1   4   1
M  END
>  <meeko>  (4) 
{"is_sidechain": [false], "free_energy": -7.651, "intermolecular_energy": -8.51, "internal_energy": -0.205}

$$$$
rasagiline_out
     RDKit          3D

 27 28  0  0  0  0  0  0  0  0999 V2000
   55.6170  162.0000   32.2300 C   0  0  0  0  0  0  0  0  0  0  0  0
   54.6390  162.1360   31.5450 C   0  0  0  0  0  0  0  0  0  0  0  0
   53.4430  162.3050   30.7090 C   0  0  0  0  0  0  0  0  0  0  0  0
   52.2520  162.1660   31.5350 N   0  0  0  0  0  0  0  0  0  0  0  0
   51.7560  160.7950   31.5700 C   0  0  2  0  0  0  0  0  0  0  0  0
   51.8060  160.0690   30.2060 C   0  0  0  0  0  0  0  0  0  0  0  0
   50.6890  159.0150   30.2390 C   0  0  0  0  0  0  0  0  0  0  0  0
   49.6800  159.6980   31.1090 C   0  0  0  0  0  0  0  0  0  0  0  0
   48.3350  159.4000   31.2450 C   0  0  0  0  0  0  0  0  0  0  0  0
   47.5800  160.1500   32.1510 C   0  0  0  0  0  0  0  0  0  0  0  0
   48.1770  161.1690   32.9090 C   0  0  0  0  0  0  0  0  0  0  0  0
   49.5370  161.4520   32.7730 C   0  0  0  0  0  0  0  0  0  0  0  0
   50.2800  160.7160   31.8620 C   0  0  0  0  0  0  0  0  0  0  0  0
   56.5122  161.8755   32.8570 H   0  0  0  0  0  0  0  0  0  0  0  0
   53.4555  163.3037   30.2481 H   0  0  0  0  0  0  0  0  0  0  0  0
   53.4347  161.5383   29.9203 H   0  0  0  0  0  0  0  0  0  0  0  0
   51.5210  162.7690   31.1590 H   0  0  0  0  0  0  0  0  0  0  0  0
   52.5010  162.4310   32.4880 H   0  0  0  0  0  0  0  0  0  0  0  0
   52.4075  160.3465   32.3344 H   0  0  0  0  0  0  0  0  0  0  0  0
   51.6321  160.7831   29.3876 H   0  0  0  0  0  0  0  0  0  0  0  0
   52.7888  159.6056   30.0349 H   0  0  0  0  0  0  0  0  0  0  0  0
   50.2888  158.8184   29.2334 H   0  0  0  0  0  0  0  0  0  0  0  0
   51.0075  158.0269   30.6025 H   0  0  0  0  0  0  0  0  0  0  0  0
   47.8728  158.5944   30.6557 H   0  0  0  0  0  0  0  0  0  0  0  0
   46.5070  159.9394   32.2711 H   0  0  0  0  0  0  0  0  0  0  0  0
   47.5676  161.7500   33.6168 H   0  0  0  0  0  0  0  0  0  0  0  0
   50.0094  162.2418   33.3754 H   0  0  0  0  0  0  0  0  0  0  0  0
  1  2  3  0
  2  3  1  0
  3  4  1  0
  4  5  1  0
  5  6  1  0
  6  7  1  0
  7  8  1  0
  8  9  2  0
  9 10  1  0
 10 11  2  0
 11 12  1  0
 12 13  2  0
 13  5  1  0
 13  8  1  0
  1 14  1  0
  3 15  1  0
  3 16  1  0
  4 17  1  0
  4 18  1  0
  5 19  1  1
  6 20  1  0
  6 21  1  0
  7 22  1  0
  7 23  1  0
  9 24  1  0
 10 25  1  0
 11 26  1  0
 12 27  1  0
M  CHG  1   4   1
M  END
>  <meeko>  (5) 
{"is_sidechain": [false], "free_energy": -7.531, "intermolecular_energy": -8.343, "internal_energy": -0.238}

$$$$
rasagiline_out
     RDKit          3D

 27 28  0  0  0  0  0  0  0  0999 V2000
   51.2590  155.5580   29.5590 C   0  0  0  0  0  0  0  0  0  0  0  0
   51.7900  154.6800   28.9340 C   0  0  0  0  0  0  0  0  0  0  0  0
   52.4400  153.6090   28.1680 C   0  0  0  0  0  0  0  0  0  0  0  0
   51.5560  153.1790   27.0930 N   0  0  0  0  0  0  0  0  0  0  0  0
   52.2690  152.9690   25.8380 C   0  0  2  0  0  0  0  0  0  0  0  0
   53.3420  151.8580   25.8970 C   0  0  0  0  0  0  0  0  0  0  0  0
   54.3960  152.2210   24.8420 C   0  0  0  0  0  0  0  0  0  0  0  0
   54.3280  153.7160   24.8750 C   0  0  0  0  0  0  0  0  0  0  0  0
   55.2570  154.6210   24.3900 C   0  0  0  0  0  0  0  0  0  0  0  0
   54.9690  155.9840   24.4940 C   0  0  0  0  0  0  0  0  0  0  0  0
   53.7630  156.4200   25.0650 C   0  0  0  0  0  0  0  0  0  0  0  0
   52.8270  155.4990   25.5390 C   0  0  0  0  0  0  0  0  0  0  0  0
   53.1230  154.1470   25.4480 C   0  0  0  0  0  0  0  0  0  0  0  0
   50.7728  156.3619   30.1312 H   0  0  0  0  0  0  0  0  0  0  0  0
   53.3823  153.9829   27.7411 H   0  0  0  0  0  0  0  0  0  0  0  0
   52.6520  152.7583   28.8323 H   0  0  0  0  0  0  0  0  0  0  0  0
   50.8440  153.8940   26.9490 H   0  0  0  0  0  0  0  0  0  0  0  0
   51.1410  152.2880   27.3680 H   0  0  0  0  0  0  0  0  0  0  0  0
   51.4394  152.7464   25.1508 H   0  0  0  0  0  0  0  0  0  0  0  0
   53.7998  151.8233   26.8966 H   0  0  0  0  0  0  0  0  0  0  0  0
   52.9040  150.8682   25.7007 H   0  0  0  0  0  0  0  0  0  0  0  0
   55.3941  151.8554   25.1253 H   0  0  0  0  0  0  0  0  0  0  0  0
   54.2164  151.7801   23.8503 H   0  0  0  0  0  0  0  0  0  0  0  0
   56.1970  154.2758   23.9348 H   0  0  0  0  0  0  0  0  0  0  0  0
   55.6949  156.7233   24.1246 H   0  0  0  0  0  0  0  0  0  0  0  0
   53.5535  157.4973   25.1397 H   0  0  0  0  0  0  0  0  0  0  0  0
   51.8757  155.8381   25.9750 H   0  0  0  0  0  0  0  0  0  0  0  0
  1  2  3  0
  2  3  1  0
  3  4  1  0
  4  5  1  0
  5  6  1  0
  6  7  1  0
  7  8  1  0
  8  9  2  0
  9 10  1  0
 10 11  2  0
 11 12  1  0
 12 13  2  0
 13  5  1  0
 13  8  1  0
  1 14  1  0
  3 15  1  0
  3 16  1  0
  4 17  1  0
  4 18  1  0
  5 19  1  6
  6 20  1  0
  6 21  1  0
  7 22  1  0
  7 23  1  0
  9 24  1  0
 10 25  1  0
 11 26  1  0
 12 27  1  0
M  CHG  1   4   1
M  END
>  <meeko>  (6) 
{"is_sidechain": [false], "free_energy": -7.378, "intermolecular_energy": -8.253, "internal_energy": -0.157}

$$$$
rasagiline_out
     RDKit          3D

 27 28  0  0  0  0  0  0  0  0999 V2000
   52.5780  155.6960   27.3690 C   0  0  0  0  0  0  0  0  0  0  0  0
   52.6500  156.6350   28.1140 C   0  0  0  0  0  0  0  0  0  0  0  0
   52.7390  157.7820   29.0270 C   0  0  0  0  0  0  0  0  0  0  0  0
   51.4500  157.9870   29.6730 N   0  0  0  0  0  0  0  0  0  0  0  0
   51.1220  159.4000   29.8260 C   0  0  2  0  0  0  0  0  0  0  0  0
   52.1690  160.2100   30.6240 C   0  0  0  0  0  0  0  0  0  0  0  0
   51.4090  161.3790   31.2670 C   0  0  0  0  0  0  0  0  0  0  0  0
   50.0660  160.7570   31.4900 C   0  0  0  0  0  0  0  0  0  0  0  0
   49.0530  161.1970   32.3250 C   0  0  0  0  0  0  0  0  0  0  0  0
   47.8560  160.4760   32.3490 C   0  0  0  0  0  0  0  0  0  0  0  0
   47.6850  159.3440   31.5370 C   0  0  0  0  0  0  0  0  0  0  0  0
   48.7080  158.9170   30.6880 C   0  0  0  0  0  0  0  0  0  0  0  0
   49.9000  159.6260   30.6780 C   0  0  0  0  0  0  0  0  0  0  0  0
   52.5120  154.8358   26.6865 H   0  0  0  0  0  0  0  0  0  0  0  0
   53.5052  157.5843   29.7911 H   0  0  0  0  0  0  0  0  0  0  0  0
   53.0129  158.6834   28.4591 H   0  0  0  0  0  0  0  0  0  0  0  0
   51.4740  157.5550   30.5960 H   0  0  0  0  0  0  0  0  0  0  0  0
   50.7340  157.5640   29.0810 H   0  0  0  0  0  0  0  0  0  0  0  0
   51.0241  159.7164   28.7771 H   0  0  0  0  0  0  0  0  0  0  0  0
   52.6270  159.5800   31.4007 H   0  0  0  0  0  0  0  0  0  0  0  0
   52.9788  160.5694   29.9720 H   0  0  0  0  0  0  0  0  0  0  0  0
   51.8727  161.6900   32.2148 H   0  0  0  0  0  0  0  0  0  0  0  0
   51.3892  162.2961   30.6600 H   0  0  0  0  0  0  0  0  0  0  0  0
   49.1868  162.0903   32.9528 H   0  0  0  0  0  0  0  0  0  0  0  0
   47.0393  160.7991   33.0112 H   0  0  0  0  0  0  0  0  0  0  0  0
   46.7364  158.7881   31.5698 H   0  0  0  0  0  0  0  0  0  0  0  0
   48.5715  158.0377   30.0413 H   0  0  0  0  0  0  0  0  0  0  0  0
  1  2  3  0
  2  3  1  0
  3  4  1  0
  4  5  1  0
  5  6  1  0
  6  7  1  0
  7  8  1  0
  8  9  2  0
  9 10  1  0
 10 11  2  0
 11 12  1  0
 12 13  2  0
 13  5  1  0
 13  8  1  0
  1 14  1  0
  3 15  1  0
  3 16  1  0
  4 17  1  0
  4 18  1  0
  5 19  1  6
  6 20  1  0
  6 21  1  0
  7 22  1  0
  7 23  1  0
  9 24  1  0
 10 25  1  0
 11 26  1  0
 12 27  1  0
M  CHG  1   4   1
M  END
>  <meeko>  (7) 
{"is_sidechain": [false], "free_energy": -7.339, "intermolecular_energy": -8.215, "internal_energy": -0.151}

$$$$
rasagiline_out
     RDKit          3D

 27 28  0  0  0  0  0  0  0  0999 V2000
   51.8320  158.4700   29.6740 C   0  0  0  0  0  0  0  0  0  0  0  0
   51.7300  157.3100   29.3770 C   0  0  0  0  0  0  0  0  0  0  0  0
   51.6080  155.8920   29.0160 C   0  0  0  0  0  0  0  0  0  0  0  0
   52.5340  155.5880   27.9330 N   0  0  0  0  0  0  0  0  0  0  0  0
   52.0430  154.5240   27.0640 C   0  0  2  0  0  0  0  0  0  0  0  0
   51.9530  153.1400   27.7470 C   0  0  0  0  0  0  0  0  0  0  0  0
   52.1130  152.0990   26.6290 C   0  0  0  0  0  0  0  0  0  0  0  0
   53.0210  152.8270   25.6890 C   0  0  0  0  0  0  0  0  0  0  0  0
   53.7850  152.2990   24.6620 C   0  0  0  0  0  0  0  0  0  0  0  0
   54.5380  153.1760   23.8790 C   0  0  0  0  0  0  0  0  0  0  0  0
   54.5100  154.5580   24.1220 C   0  0  0  0  0  0  0  0  0  0  0  0
   53.7260  155.0820   25.1520 C   0  0  0  0  0  0  0  0  0  0  0  0
   52.9920  154.2070   25.9370 C   0  0  0  0  0  0  0  0  0  0  0  0
   51.9254  159.5318   29.9459 H   0  0  0  0  0  0  0  0  0  0  0  0
   51.8478  155.2686   29.8900 H   0  0  0  0  0  0  0  0  0  0  0  0
   50.5786  155.6828   28.6895 H   0  0  0  0  0  0  0  0  0  0  0  0
   53.4240  155.2960   28.3360 H   0  0  0  0  0  0  0  0  0  0  0  0
   52.6380  156.4300   27.3660 H   0  0  0  0  0  0  0  0  0  0  0  0
   51.0682  154.9279   26.7531 H   0  0  0  0  0  0  0  0  0  0  0  0
   52.7566  153.0284   28.4898 H   0  0  0  0  0  0  0  0  0  0  0  0
   50.9968  153.0158   28.2764 H   0  0  0  0  0  0  0  0  0  0  0  0
   52.5757  151.1734   27.0021 H   0  0  0  0  0  0  0  0  0  0  0  0
   51.1656  151.7677   26.1789 H   0  0  0  0  0  0  0  0  0  0  0  0
   53.7983  151.2163   24.4680 H   0  0  0  0  0  0  0  0  0  0  0  0
   55.1599  152.7795   23.0629 H   0  0  0  0  0  0  0  0  0  0  0  0
   55.1107  155.2341   23.4958 H   0  0  0  0  0  0  0  0  0  0  0  0
   53.6918  156.1659   25.3363 H   0  0  0  0  0  0  0  0  0  0  0  0
  1  2  3  0
  2  3  1  0
  3  4  1  0
  4  5  1  0
  5  6  1  0
  6  7  1  0
  7  8  1  0
  8  9  2  0
  9 10  1  0
 10 11  2  0
 11 12  1  0
 12 13  2  0
 13  5  1  0
 13  8  1  0
  1 14  1  0
  3 15  1  0
  3 16  1  0
  4 17  1  0
  4 18  1  0
  5 19  1  6
  6 20  1  0
  6 21  1  0
  7 22  1  0
  7 23  1  0
  9 24  1  0
 10 25  1  0
 11 26  1  0
 12 27  1  0
M  CHG  1   4   1
M  END
>  <meeko>  (8) 
{"is_sidechain": [false], "free_energy": -7.235, "intermolecular_energy": -8.105, "internal_energy": -0.145}

$$$$
rasagiline_out
     RDKit          3D

 27 28  0  0  0  0  0  0  0  0999 V2000
   54.1260  148.7590   24.5500 C   0  0  0  0  0  0  0  0  0  0  0  0
   54.1780  149.9330   24.7970 C   0  0  0  0  0  0  0  0  0  0  0  0
   54.2430  151.3680   25.1000 C   0  0  0  0  0  0  0  0  0  0  0  0
   53.0320  151.7690   25.8050 N   0  0  0  0  0  0  0  0  0  0  0  0
   53.2400  152.9430   26.6440 C   0  0  2  0  0  0  0  0  0  0  0  0
   51.9470  153.5060   27.2760 C   0  0  0  0  0  0  0  0  0  0  0  0
   52.1950  155.0050   27.5000 C   0  0  0  0  0  0  0  0  0  0  0  0
   53.1120  155.3150   26.3580 C   0  0  0  0  0  0  0  0  0  0  0  0
   53.4250  156.5570   25.8320 C   0  0  0  0  0  0  0  0  0  0  0  0
   54.3430  156.6170   24.7800 C   0  0  0  0  0  0  0  0  0  0  0  0
   54.9390  155.4480   24.2820 C   0  0  0  0  0  0  0  0  0  0  0  0
   54.6260  154.2020   24.8290 C   0  0  0  0  0  0  0  0  0  0  0  0
   53.7030  154.1450   25.8630 C   0  0  0  0  0  0  0  0  0  0  0  0
   54.0784  147.6836   24.3237 H   0  0  0  0  0  0  0  0  0  0  0  0
   55.1199  151.5702   25.7325 H   0  0  0  0  0  0  0  0  0  0  0  0
   54.3287  151.9380   24.1631 H   0  0  0  0  0  0  0  0  0  0  0  0
   52.7260  150.9950   26.3940 H   0  0  0  0  0  0  0  0  0  0  0  0
   52.3290  152.0070   25.1050 H   0  0  0  0  0  0  0  0  0  0  0  0
   53.9620  152.5594   27.3800 H   0  0  0  0  0  0  0  0  0  0  0  0
   51.0950  153.3582   26.5962 H   0  0  0  0  0  0  0  0  0  0  0  0
   51.7075  152.9946   28.2200 H   0  0  0  0  0  0  0  0  0  0  0  0
   51.2612  155.5830   27.4370 H   0  0  0  0  0  0  0  0  0  0  0  0
   52.6030  155.2547   28.4906 H   0  0  0  0  0  0  0  0  0  0  0  0
   52.9634  157.4721   26.2315 H   0  0  0  0  0  0  0  0  0  0  0  0
   54.6011  157.5905   24.3377 H   0  0  0  0  0  0  0  0  0  0  0  0
   55.6593  155.5140   23.4532 H   0  0  0  0  0  0  0  0  0  0  0  0
   55.1009  153.2857   24.4484 H   0  0  0  0  0  0  0  0  0  0  0  0
  1  2  3  0
  2  3  1  0
  3  4  1  0
  4  5  1  0
  5  6  1  0
  6  7  1  0
  7  8  1  0
  8  9  2  0
  9 10  1  0
 10 11  2  0
 11 12  1  0
 12 13  2  0
 13  5  1  0
 13  8  1  0
  1 14  1  0
  3 15  1  0
  3 16  1  0
  4 17  1  0
  4 18  1  0
  5 19  1  1
  6 20  1  0
  6 21  1  0
  7 22  1  0
  7 23  1  0
  9 24  1  0
 10 25  1  0
 11 26  1  0
 12 27  1  0
M  CHG  1   4   1
M  END
>  <meeko>  (9) 
{"is_sidechain": [false], "free_energy": -7.225, "intermolecular_energy": -8.746, "internal_energy": 0.507}

$$$$
