cand_012_out
     RDKit          3D

 40 42  0  0  0  0  0  0  0  0999 V2000
   74.8240   45.0280   -5.7540 C   0  0  0  0  0  0  0  0  0  0  0  0
   75.4880   43.8030   -5.2960 N   0  0  0  0  0  0  0  0  0  0  0  0
   76.1880   43.0690   -6.3560 C   0  0  0  0  0  0  0  0  0  0  0  0
   74.6520   42.9650   -4.5350 C   0  0  0  0  0  0  0  0  0  0  0  0
   73.5240   42.3420   -5.0910 C   0  0  0  0  0  0  0  0  0  0  0  0
   72.7050   41.5040   -4.3270 C   0  0  0  0  0  0  0  0  0  0  0  0
   72.9950   41.2550   -2.9840 C   0  0  0  0  0  0  0  0  0  0  0  0
   72.1330   40.3950   -2.1450 C   0  0  0  0  0  0  0  0  0  0  0  0
   70.7990   40.7830   -2.1660 O   0  0  0  0  0  0  0  0  0  0  0  0
   69.8880   40.0720   -1.4270 C   0  0  0  0  0  0  0  0  0  0  0  0
   68.5580   40.4900   -1.4880 C   0  0  0  0  0  0  0  0  0  0  0  0
   67.5810   39.8090   -0.7580 C   0  0  0  0  0  0  0  0  0  0  0  0
   67.9340   38.7120    0.0310 C   0  0  0  0  0  0  0  0  0  0  0  0
   69.2620   38.2990    0.0900 C   0  0  0  0  0  0  0  0  0  0  0  0
   69.5370   37.2180    0.8830 O   0  0  0  0  0  0  0  0  0  0  0  0
   70.2390   38.9790   -0.6410 C   0  0  0  0  0  0  0  0  0  0  0  0
   71.6460   38.5780   -0.6070 C   0  0  0  0  0  0  0  0  0  0  0  0
   72.0360   37.6270    0.0680 O   0  0  0  0  0  0  0  0  0  0  0  0
   72.6020   39.3620   -1.4220 C   0  0  0  0  0  0  0  0  0  0  0  0
   73.9320   38.9840   -1.3710 O   0  0  0  0  0  0  0  0  0  0  0  0
   74.1170   41.8810   -2.4220 C   0  0  0  0  0  0  0  0  0  0  0  0
   74.9520   42.7290   -3.1810 C   0  0  0  0  0  0  0  0  0  0  0  0
   76.1490   43.3760   -2.5290 C   0  0  0  0  0  0  0  0  0  0  0  0
   77.3420   43.0000   -3.0740 F   0  0  0  0  0  0  0  0  0  0  0  0
   76.2600   43.0600   -1.2000 F   0  0  0  0  0  0  0  0  0  0  0  0
   76.1210   44.7400   -2.5580 F   0  0  0  0  0  0  0  0  0  0  0  0
   74.5037   45.6189   -4.8833 H   0  0  0  0  0  0  0  0  0  0  0  0
   75.5248   45.6199   -6.3611 H   0  0  0  0  0  0  0  0  0  0  0  0
   73.9456   44.7639   -6.3611 H   0  0  0  0  0  0  0  0  0  0  0  0
   76.8801   42.3433   -5.9039 H   0  0  0  0  0  0  0  0  0  0  0  0
   75.4544   42.5368   -6.9794 H   0  0  0  0  0  0  0  0  0  0  0  0
   76.7543   43.7765   -6.9794 H   0  0  0  0  0  0  0  0  0  0  0  0
   73.2789   42.5162   -6.1491 H   0  0  0  0  0  0  0  0  0  0  0  0
   71.8232   41.0362   -4.7891 H   0  0  0  0  0  0  0  0  0  0  0  0
   68.2796   41.3538   -2.1095 H   0  0  0  0  0  0  0  0  0  0  0  0
   66.5321   40.1372   -0.8046 H   0  0  0  0  0  0  0  0  0  0  0  0
   67.1640   38.1754    0.6047 H   0  0  0  0  0  0  0  0  0  0  0  0
   68.8600   36.8360    1.4060 H   0  0  0  0  0  0  0  0  0  0  0  0
   74.4040   38.8240   -2.1650 H   0  0  0  0  0  0  0  0  0  0  0  0
   74.3526   41.7066   -1.3618 H   0  0  0  0  0  0  0  0  0  0  0  0
  1  2  1  0
  2  3  1  0
  2  4  1  0
  4  5  2  0
  5  6  1  0
  6  7  2  0
  7  8  1  0
  8  9  1  0
  9 10  1  0
 10 11  2  0
 11 12  1  0
 12 13  2  0
 13 14  1  0
 14 15  1  0
 14 16  2  0
 16 17  1  0
 17 18  2  0
 17 19  1  0
 19 20  1  0
  7 21  1  0
 21 22  2  0
 22 23  1  0
 23 24  1  0
 23 25  1  0
 23 26  1  0
 22  4  1  0
 19  8  2  0
 16 10  1  0
  1 27  1  0
  1 28  1  0
  1 29  1  0
  3 30  1  0
  3 31  1  0
  3 32  1  0
  5 33  1  0
  6 34  1  0
 11 35  1  0
 12 36  1  0
 13 37  1  0
 15 38  1  0
 20 39  1  0
 21 40  1  0
M  END
>  <meeko>  (1) 
{"is_sidechain": [false], "free_energy": -7.977, "intermolecular_energy": -9.842, "internal_energy": -0.389}

$$$$
cand_012_out
     RDKit          3D

 40 42  0  0  0  0  0  0  0  0999 V2000
   75.1290   44.9440   -5.7450 C   0  0  0  0  0  0  0  0  0  0  0  0
   75.6700   43.6580   -5.2950 N   0  0  0  0  0  0  0  0  0  0  0  0
   76.3000   42.8670   -6.3580 C   0  0  0  0  0  0  0  0  0  0  0  0
   74.7550   42.8990   -4.5410 C   0  0  0  0  0  0  0  0  0  0  0  0
   73.6030   42.3410   -5.1200 C   0  0  0  0  0  0  0  0  0  0  0  0
   72.7050   41.5810   -4.3640 C   0  0  0  0  0  0  0  0  0  0  0  0
   72.9360   41.3460   -3.0070 C   0  0  0  0  0  0  0  0  0  0  0  0
   71.9910   40.5690   -2.1770 C   0  0  0  0  0  0  0  0  0  0  0  0
   72.5880   39.4770   -1.5570 O   0  0  0  0  0  0  0  0  0  0  0  0
   71.8230   38.6670   -0.7580 C   0  0  0  0  0  0  0  0  0  0  0  0
   72.4670   37.5900   -0.1460 C   0  0  0  0  0  0  0  0  0  0  0  0
   71.7440   36.7260    0.6800 C   0  0  0  0  0  0  0  0  0  0  0  0
   70.3810   36.9370    0.8930 C   0  0  0  0  0  0  0  0  0  0  0  0
   69.7420   38.0120    0.2800 C   0  0  0  0  0  0  0  0  0  0  0  0
   68.4050   38.1600    0.5320 O   0  0  0  0  0  0  0  0  0  0  0  0
   70.4640   38.8770   -0.5440 C   0  0  0  0  0  0  0  0  0  0  0  0
   69.8310   40.0180   -1.2080 C   0  0  0  0  0  0  0  0  0  0  0  0
   68.6350   40.2670   -1.0750 O   0  0  0  0  0  0  0  0  0  0  0  0
   70.6860   40.8780   -2.0570 C   0  0  0  0  0  0  0  0  0  0  0  0
   70.0760   41.9440   -2.6920 O   0  0  0  0  0  0  0  0  0  0  0  0
   74.0810   41.9070   -2.4230 C   0  0  0  0  0  0  0  0  0  0  0  0
   74.9970   42.6760   -3.1740 C   0  0  0  0  0  0  0  0  0  0  0  0
   76.2160   43.2550   -2.4980 C   0  0  0  0  0  0  0  0  0  0  0  0
   77.3940   42.8730   -3.0710 F   0  0  0  0  0  0  0  0  0  0  0  0
   76.3250   42.8680   -1.1880 F   0  0  0  0  0  0  0  0  0  0  0  0
   76.2260   44.6180   -2.4580 F   0  0  0  0  0  0  0  0  0  0  0  0
   74.8702   45.5591   -4.8705 H   0  0  0  0  0  0  0  0  0  0  0  0
   75.8833   45.4672   -6.3511 H   0  0  0  0  0  0  0  0  0  0  0  0
   74.2275   44.7707   -6.3511 H   0  0  0  0  0  0  0  0  0  0  0  0
   76.9256   42.0816   -5.9088 H   0  0  0  0  0  0  0  0  0  0  0  0
   75.5208   42.4036   -6.9811 H   0  0  0  0  0  0  0  0  0  0  0  0
   76.9259   43.5227   -6.9811 H   0  0  0  0  0  0  0  0  0  0  0  0
   73.4034   42.5052   -6.1892 H   0  0  0  0  0  0  0  0  0  0  0  0
   71.8071   41.1639   -4.8434 H   0  0  0  0  0  0  0  0  0  0  0  0
   73.5411   37.4222   -0.3138 H   0  0  0  0  0  0  0  0  0  0  0  0
   72.2501   35.8775    1.1636 H   0  0  0  0  0  0  0  0  0  0  0  0
   69.8127   36.2559    1.5435 H   0  0  0  0  0  0  0  0  0  0  0  0
   67.9040   38.7870    0.0480 H   0  0  0  0  0  0  0  0  0  0  0  0
   69.8020   42.6900   -2.1950 H   0  0  0  0  0  0  0  0  0  0  0  0
   74.2706   41.7438   -1.3518 H   0  0  0  0  0  0  0  0  0  0  0  0
  1  2  1  0
  2  3  1  0
  2  4  1  0
  4  5  2  0
  5  6  1  0
  6  7  2  0
  7  8  1  0
  8  9  1  0
  9 10  1  0
 10 11  2  0
 11 12  1  0
 12 13  2  0
 13 14  1  0
 14 15  1  0
 14 16  2  0
 16 17  1  0
 17 18  2  0
 17 19  1  0
 19 20  1  0
  7 21  1  0
 21 22  2  0
 22 23  1  0
 23 24  1  0
 23 25  1  0
 23 26  1  0
 22  4  1  0
 19  8  2  0
 16 10  1  0
  1 27  1  0
  1 28  1  0
  1 29  1  0
  3 30  1  0
  3 31  1  0
  3 32  1  0
  5 33  1  0
  6 34  1  0
 11 35  1  0
 12 36  1  0
 13 37  1  0
 15 38  1  0
 20 39  1  0
 21 40  1  0
M  END
>  <meeko>  (2) 
{"is_sidechain": [false], "free_energy": -7.949, "intermolecular_energy": -9.757, "internal_energy": -0.44}

$$$$
cand_012_out
     RDKit          3D

 40 42  0  0  0  0  0  0  0  0999 V2000
   75.6110   46.3160   -2.9180 C   0  0  0  0  0  0  0  0  0  0  0  0
   75.5510   45.0320   -3.6230 N   0  0  0  0  0  0  0  0  0  0  0  0
   75.8590   45.1200   -5.0550 C   0  0  0  0  0  0  0  0  0  0  0  0
   74.3650   44.3150   -3.3800 C   0  0  0  0  0  0  0  0  0  0  0  0
   73.1040   44.8340   -3.7140 C   0  0  0  0  0  0  0  0  0  0  0  0
   71.9320   44.1090   -3.4760 C   0  0  0  0  0  0  0  0  0  0  0  0
   71.9850   42.8350   -2.9040 C   0  0  0  0  0  0  0  0  0  0  0  0
   70.7620   42.0570   -2.6160 C   0  0  0  0  0  0  0  0  0  0  0  0
   70.8850   41.2570   -1.4860 O   0  0  0  0  0  0  0  0  0  0  0  0
   69.8220   40.4770   -1.1060 C   0  0  0  0  0  0  0  0  0  0  0  0
   69.9860   39.6990    0.0420 C   0  0  0  0  0  0  0  0  0  0  0  0
   68.9420   38.8820    0.4820 C   0  0  0  0  0  0  0  0  0  0  0  0
   67.7380   38.8430   -0.2230 C   0  0  0  0  0  0  0  0  0  0  0  0
   67.5790   39.6200   -1.3670 C   0  0  0  0  0  0  0  0  0  0  0  0
   66.3730   39.5330   -2.0100 O   0  0  0  0  0  0  0  0  0  0  0  0
   68.6220   40.4380   -1.8080 C   0  0  0  0  0  0  0  0  0  0  0  0
   68.4960   41.2690   -3.0060 C   0  0  0  0  0  0  0  0  0  0  0  0
   67.4710   41.2850   -3.6840 O   0  0  0  0  0  0  0  0  0  0  0  0
   69.6590   42.1050   -3.3850 C   0  0  0  0  0  0  0  0  0  0  0  0
   69.5360   42.8750   -4.5270 O   0  0  0  0  0  0  0  0  0  0  0  0
   73.2420   42.3160   -2.5620 C   0  0  0  0  0  0  0  0  0  0  0  0
   74.4330   43.0370   -2.7970 C   0  0  0  0  0  0  0  0  0  0  0  0
   75.7610   42.4310   -2.4120 C   0  0  0  0  0  0  0  0  0  0  0  0
   76.6470   42.3500   -3.4460 F   0  0  0  0  0  0  0  0  0  0  0  0
   75.6400   41.1440   -1.9580 F   0  0  0  0  0  0  0  0  0  0  0  0
   76.3970   43.0940   -1.4040 F   0  0  0  0  0  0  0  0  0  0  0  0
   75.6027   46.1390   -1.8324 H   0  0  0  0  0  0  0  0  0  0  0  0
   76.5348   46.8443   -3.1963 H   0  0  0  0  0  0  0  0  0  0  0  0
   74.7405   46.9282   -3.1963 H   0  0  0  0  0  0  0  0  0  0  0  0
   76.9091   45.4200   -5.1864 H   0  0  0  0  0  0  0  0  0  0  0  0
   75.6961   44.1394   -5.5260 H   0  0  0  0  0  0  0  0  0  0  0  0
   75.2027   45.8666   -5.5260 H   0  0  0  0  0  0  0  0  0  0  0  0
   73.0364   45.8316   -4.1724 H   0  0  0  0  0  0  0  0  0  0  0  0
   70.9582   44.5461   -3.7418 H   0  0  0  0  0  0  0  0  0  0  0  0
   70.9346   39.7295    0.5981 H   0  0  0  0  0  0  0  0  0  0  0  0
   69.0690   38.2681    1.3859 H   0  0  0  0  0  0  0  0  0  0  0  0
   66.9164   38.1995    0.1247 H   0  0  0  0  0  0  0  0  0  0  0  0
   66.1340   40.1770   -2.6470 H   0  0  0  0  0  0  0  0  0  0  0  0
   68.6860   43.1340   -4.8280 H   0  0  0  0  0  0  0  0  0  0  0  0
   73.3018   41.3204   -2.0982 H   0  0  0  0  0  0  0  0  0  0  0  0
  1  2  1  0
  2  3  1  0
  2  4  1  0
  4  5  2  0
  5  6  1  0
  6  7  2  0
  7  8  1  0
  8  9  1  0
  9 10  1  0
 10 11  2  0
 11 12  1  0
 12 13  2  0
 13 14  1  0
 14 15  1  0
 14 16  2  0
 16 17  1  0
 17 18  2  0
 17 19  1  0
 19 20  1  0
  7 21  1  0
 21 22  2  0
 22 23  1  0
 23 24  1  0
 23 25  1  0
 23 26  1  0
 22  4  1  0
 19  8  2  0
 16 10  1  0
  1 27  1  0
  1 28  1  0
  1 29  1  0
  3 30  1  0
  3 31  1  0
  3 32  1  0
  5 33  1  0
  6 34  1  0
 11 35  1  0
 12 36  1  0
 13 37  1  0
 15 38  1  0
 20 39  1  0
 21 40  1  0
M  END
>  <meeko>  (3) 
{"is_sidechain": [false], "free_energy": -7.839, "intermolecular_energy": -9.878, "internal_energy": -0.183}

$$$$
cand_012_out
     RDKit          3D

 40 42  0  0  0  0  0  0  0  0999 V2000
   77.5240   42.3810   -5.3900 C   0  0  0  0  0  0  0  0  0  0  0  0
   76.4480   43.2450   -4.8940 N   0  0  0  0  0  0  0  0  0  0  0  0
   76.9180   44.4540   -4.2100 C   0  0  0  0  0  0  0  0  0  0  0  0
   75.4780   42.5550   -4.1440 C   0  0  0  0  0  0  0  0  0  0  0  0
   75.7480   42.0640   -2.8570 C   0  0  0  0  0  0  0  0  0  0  0  0
   74.7740   41.3870   -2.1170 C   0  0  0  0  0  0  0  0  0  0  0  0
   73.4930   41.1890   -2.6370 C   0  0  0  0  0  0  0  0  0  0  0  0
   72.4500   40.4550   -1.8890 C   0  0  0  0  0  0  0  0  0  0  0  0
   72.9390   39.3170   -1.2570 O   0  0  0  0  0  0  0  0  0  0  0  0
   72.0760   38.5390   -0.5280 C   0  0  0  0  0  0  0  0  0  0  0  0
   72.6130   37.4140    0.0990 C   0  0  0  0  0  0  0  0  0  0  0  0
   71.7870   36.5800    0.8560 C   0  0  0  0  0  0  0  0  0  0  0  0
   70.4270   36.8690    0.9840 C   0  0  0  0  0  0  0  0  0  0  0  0
   69.8950   37.9920    0.3560 C   0  0  0  0  0  0  0  0  0  0  0  0
   68.5550   38.2160    0.5240 O   0  0  0  0  0  0  0  0  0  0  0  0
   70.7210   38.8280   -0.3990 C   0  0  0  0  0  0  0  0  0  0  0  0
   70.2020   40.0180   -1.0760 C   0  0  0  0  0  0  0  0  0  0  0  0
   69.0160   40.3360   -1.0160 O   0  0  0  0  0  0  0  0  0  0  0  0
   71.1610   40.8400   -1.8480 C   0  0  0  0  0  0  0  0  0  0  0  0
   70.6580   41.9530   -2.4960 O   0  0  0  0  0  0  0  0  0  0  0  0
   73.2200   41.6710   -3.9260 C   0  0  0  0  0  0  0  0  0  0  0  0
   74.1940   42.3560   -4.6840 C   0  0  0  0  0  0  0  0  0  0  0  0
   73.8490   42.8570   -6.0650 C   0  0  0  0  0  0  0  0  0  0  0  0
   73.9880   44.2070   -6.2090 F   0  0  0  0  0  0  0  0  0  0  0  0
   72.5460   42.6050   -6.4050 F   0  0  0  0  0  0  0  0  0  0  0  0
   74.5830   42.2810   -7.0590 F   0  0  0  0  0  0  0  0  0  0  0  0
   78.0666   41.9453   -4.5381 H   0  0  0  0  0  0  0  0  0  0  0  0
   77.0940   41.5745   -6.0020 H   0  0  0  0  0  0  0  0  0  0  0  0
   78.2186   42.9751   -6.0020 H   0  0  0  0  0  0  0  0  0  0  0  0
   76.8602   44.3054   -3.1216 H   0  0  0  0  0  0  0  0  0  0  0  0
   77.9603   44.6563   -4.4977 H   0  0  0  0  0  0  0  0  0  0  0  0
   76.2860   45.3072   -4.4977 H   0  0  0  0  0  0  0  0  0  0  0  0
   76.7468   42.2150   -2.4216 H   0  0  0  0  0  0  0  0  0  0  0  0
   75.0192   41.0062   -1.1146 H   0  0  0  0  0  0  0  0  0  0  0  0
   73.6840   37.1846   -0.0026 H   0  0  0  0  0  0  0  0  0  0  0  0
   72.2088   35.6936    1.3524 H   0  0  0  0  0  0  0  0  0  0  0  0
   69.7773   36.2109    1.5797 H   0  0  0  0  0  0  0  0  0  0  0  0
   67.9880   38.2430   -0.2220 H   0  0  0  0  0  0  0  0  0  0  0  0
   70.5790   41.9550   -3.4310 H   0  0  0  0  0  0  0  0  0  0  0  0
   72.2208   41.5109   -4.3572 H   0  0  0  0  0  0  0  0  0  0  0  0
  1  2  1  0
  2  3  1  0
  2  4  1  0
  4  5  2  0
  5  6  1  0
  6  7  2  0
  7  8  1  0
  8  9  1  0
  9 10  1  0
 10 11  2  0
 11 12  1  0
 12 13  2  0
 13 14  1  0
 14 15  1  0
 14 16  2  0
 16 17  1  0
 17 18  2  0
 17 19  1  0
 19 20  1  0
  7 21  1  0
 21 22  2  0
 22 23  1  0
 23 24  1  0
 23 25  1  0
 23 26  1  0
 22  4  1  0
 19  8  2  0
 16 10  1  0
  1 27  1  0
  1 28  1  0
  1 29  1  0
  3 30  1  0
  3 31  1  0
  3 32  1  0
  5 33  1  0
  6 34  1  0
 11 35  1  0
 12 36  1  0
 13 37  1  0
 15 38  1  0
 20 39  1  0
 21 40  1  0
M  END
>  <meeko>  (4) 
{"is_sidechain": [false], "free_energy": -7.78, "intermolecular_energy": -9.743, "internal_energy": -0.244}

$$$$
cand_012_out
     RDKit          3D

 40 42  0  0  0  0  0  0  0  0999 V2000
   76.9330   42.6100   -5.8060 C   0  0  0  0  0  0  0  0  0  0  0  0
   75.9150   43.3970   -5.1030 N   0  0  0  0  0  0  0  0  0  0  0  0
   76.4490   44.5540   -4.3770 C   0  0  0  0  0  0  0  0  0  0  0  0
   75.0600   42.6180   -4.3020 C   0  0  0  0  0  0  0  0  0  0  0  0
   75.4820   42.0750   -3.0780 C   0  0  0  0  0  0  0  0  0  0  0  0
   74.6210   41.3100   -2.2860 C   0  0  0  0  0  0  0  0  0  0  0  0
   73.3050   41.0710   -2.6890 C   0  0  0  0  0  0  0  0  0  0  0  0
   72.3800   40.2440   -1.8850 C   0  0  0  0  0  0  0  0  0  0  0  0
   71.0570   40.6620   -1.9830 O   0  0  0  0  0  0  0  0  0  0  0  0
   70.0930   39.9830   -1.2840 C   0  0  0  0  0  0  0  0  0  0  0  0
   68.7780   40.4300   -1.4220 C   0  0  0  0  0  0  0  0  0  0  0  0
   67.7470   39.7830   -0.7360 C   0  0  0  0  0  0  0  0  0  0  0  0
   68.0320   38.6910    0.0870 C   0  0  0  0  0  0  0  0  0  0  0  0
   69.3450   38.2480    0.2230 C   0  0  0  0  0  0  0  0  0  0  0  0
   69.5530   37.1740    1.0450 O   0  0  0  0  0  0  0  0  0  0  0  0
   70.3750   38.8950   -0.4640 C   0  0  0  0  0  0  0  0  0  0  0  0
   71.7690   38.4620   -0.3490 C   0  0  0  0  0  0  0  0  0  0  0  0
   72.1000   37.5140    0.3590 O   0  0  0  0  0  0  0  0  0  0  0  0
   72.7850   39.2120   -1.1230 C   0  0  0  0  0  0  0  0  0  0  0  0
   74.1010   38.8050   -0.9950 O   0  0  0  0  0  0  0  0  0  0  0  0
   72.8800   41.6050   -3.9140 C   0  0  0  0  0  0  0  0  0  0  0  0
   73.7390   42.3790   -4.7240 C   0  0  0  0  0  0  0  0  0  0  0  0
   73.2320   42.9330   -6.0330 C   0  0  0  0  0  0  0  0  0  0  0  0
   73.7460   42.3060   -7.1300 F   0  0  0  0  0  0  0  0  0  0  0  0
   73.5550   44.2540   -6.2060 F   0  0  0  0  0  0  0  0  0  0  0  0
   71.8750   42.8900   -6.1590 F   0  0  0  0  0  0  0  0  0  0  0  0
   77.5810   42.1091   -5.0717 H   0  0  0  0  0  0  0  0  0  0  0  0
   76.4415   41.8547   -6.4369 H   0  0  0  0  0  0  0  0  0  0  0  0
   77.5402   43.2758   -6.4369 H   0  0  0  0  0  0  0  0  0  0  0  0
   76.3674   44.3771   -3.2944 H   0  0  0  0  0  0  0  0  0  0  0  0
   77.5056   44.7000   -4.6460 H   0  0  0  0  0  0  0  0  0  0  0  0
   75.8746   45.4527   -4.6460 H   0  0  0  0  0  0  0  0  0  0  0  0
   76.5115   42.2553   -2.7352 H   0  0  0  0  0  0  0  0  0  0  0  0
   74.9835   40.8918   -1.3354 H   0  0  0  0  0  0  0  0  0  0  0  0
   68.5537   41.2903   -2.0698 H   0  0  0  0  0  0  0  0  0  0  0  0
   66.7101   40.1339   -0.8441 H   0  0  0  0  0  0  0  0  0  0  0  0
   67.2202   38.1817    0.6270 H   0  0  0  0  0  0  0  0  0  0  0  0
   68.8220   36.6890    1.3750 H   0  0  0  0  0  0  0  0  0  0  0  0
   74.3520   38.2490   -0.2830 H   0  0  0  0  0  0  0  0  0  0  0  0
   71.8506   41.4159   -4.2526 H   0  0  0  0  0  0  0  0  0  0  0  0
  1  2  1  0
  2  3  1  0
  2  4  1  0
  4  5  2  0
  5  6  1  0
  6  7  2  0
  7  8  1  0
  8  9  1  0
  9 10  1  0
 10 11  2  0
 11 12  1  0
 12 13  2  0
 13 14  1  0
 14 15  1  0
 14 16  2  0
 16 17  1  0
 17 18  2  0
 17 19  1  0
 19 20  1  0
  7 21  1  0
 21 22  2  0
 22 23  1  0
 23 24  1  0
 23 25  1  0
 23 26  1  0
 22  4  1  0
 19  8  2  0
 16 10  1  0
  1 27  1  0
  1 28  1  0
  1 29  1  0
  3 30  1  0
  3 31  1  0
  3 32  1  0
  5 33  1  0
  6 34  1  0
 11 35  1  0
 12 36  1  0
 13 37  1  0
 15 38  1  0
 20 39  1  0
 21 40  1  0
M  END
>  <meeko>  (5) 
{"is_sidechain": [false], "free_energy": -7.778, "intermolecular_energy": -9.915, "internal_energy": -0.071}

$$$$
cand_012_out
     RDKit          3D

 40 42  0  0  0  0  0  0  0  0999 V2000
   77.3510   43.1390   -4.4190 C   0  0  0  0  0  0  0  0  0  0  0  0
   76.1800   43.9320   -4.8060 N   0  0  0  0  0  0  0  0  0  0  0  0
   76.3010   45.3630   -4.5060 C   0  0  0  0  0  0  0  0  0  0  0  0
   74.9630   43.3950   -4.3450 C   0  0  0  0  0  0  0  0  0  0  0  0
   74.6160   43.4080   -2.9850 C   0  0  0  0  0  0  0  0  0  0  0  0
   73.4000   42.8800   -2.5400 C   0  0  0  0  0  0  0  0  0  0  0  0
   72.4880   42.3310   -3.4440 C   0  0  0  0  0  0  0  0  0  0  0  0
   71.2070   41.7410   -2.9990 C   0  0  0  0  0  0  0  0  0  0  0  0
   71.3460   40.9270   -1.8810 O   0  0  0  0  0  0  0  0  0  0  0  0
   70.2340   40.3120   -1.3650 C   0  0  0  0  0  0  0  0  0  0  0  0
   70.4180   39.5140   -0.2350 C   0  0  0  0  0  0  0  0  0  0  0  0
   69.3270   38.8590    0.3400 C   0  0  0  0  0  0  0  0  0  0  0  0
   68.0530   39.0030   -0.2140 C   0  0  0  0  0  0  0  0  0  0  0  0
   67.8730   39.8000   -1.3410 C   0  0  0  0  0  0  0  0  0  0  0  0
   66.5990   39.8970   -1.8320 O   0  0  0  0  0  0  0  0  0  0  0  0
   68.9640   40.4560   -1.9150 C   0  0  0  0  0  0  0  0  0  0  0  0
   68.8190   41.3020   -3.1010 C   0  0  0  0  0  0  0  0  0  0  0  0
   67.7320   41.4740   -3.6490 O   0  0  0  0  0  0  0  0  0  0  0  0
   70.0370   41.9570   -3.6290 C   0  0  0  0  0  0  0  0  0  0  0  0
   69.8920   42.7420   -4.7580 O   0  0  0  0  0  0  0  0  0  0  0  0
   72.8330   42.3090   -4.8030 C   0  0  0  0  0  0  0  0  0  0  0  0
   74.0570   42.8390   -5.2660 C   0  0  0  0  0  0  0  0  0  0  0  0
   74.3790   42.7940   -6.7400 C   0  0  0  0  0  0  0  0  0  0  0  0
   74.6410   44.0190   -7.2820 F   0  0  0  0  0  0  0  0  0  0  0  0
   73.3460   42.2970   -7.4890 F   0  0  0  0  0  0  0  0  0  0  0  0
   75.4430   41.9970   -7.0460 F   0  0  0  0  0  0  0  0  0  0  0  0
   77.4172   43.0942   -3.3219 H   0  0  0  0  0  0  0  0  0  0  0  0
   77.2535   42.1203   -4.8224 H   0  0  0  0  0  0  0  0  0  0  0  0
   78.2608   43.6076   -4.8224 H   0  0  0  0  0  0  0  0  0  0  0  0
   76.3134   45.5093   -3.4158 H   0  0  0  0  0  0  0  0  0  0  0  0
   77.2351   45.7506   -4.9386 H   0  0  0  0  0  0  0  0  0  0  0  0
   75.4452   45.9020   -4.9386 H   0  0  0  0  0  0  0  0  0  0  0  0
   75.3146   43.8422   -2.2546 H   0  0  0  0  0  0  0  0  0  0  0  0
   73.1593   42.8973   -1.4668 H   0  0  0  0  0  0  0  0  0  0  0  0
   71.4211   39.4011    0.2021 H   0  0  0  0  0  0  0  0  0  0  0  0
   69.4711   38.2290    1.2301 H   0  0  0  0  0  0  0  0  0  0  0  0
   67.1935   38.4876    0.2394 H   0  0  0  0  0  0  0  0  0  0  0  0
   66.3990   39.5660   -2.6850 H   0  0  0  0  0  0  0  0  0  0  0  0
   69.4340   42.4080   -5.5050 H   0  0  0  0  0  0  0  0  0  0  0  0
   72.1321   41.8675   -5.5268 H   0  0  0  0  0  0  0  0  0  0  0  0
  1  2  1  0
  2  3  1  0
  2  4  1  0
  4  5  2  0
  5  6  1  0
  6  7  2  0
  7  8  1  0
  8  9  1  0
  9 10  1  0
 10 11  2  0
 11 12  1  0
 12 13  2  0
 13 14  1  0
 14 15  1  0
 14 16  2  0
 16 17  1  0
 17 18  2  0
 17 19  1  0
 19 20  1  0
  7 21  1  0
 21 22  2  0
 22 23  1  0
 23 24  1  0
 23 25  1  0
 23 26  1  0
 22  4  1  0
 19  8  2  0
 16 10  1  0
  1 27  1  0
  1 28  1  0
  1 29  1  0
  3 30  1  0
  3 31  1  0
  3 32  1  0
  5 33  1  0
  6 34  1  0
 11 35  1  0
 12 36  1  0
 13 37  1  0
 15 38  1  0
 20 39  1  0
 21 40  1  0
M  END
>  <meeko>  (6) 
{"is_sidechain": [false], "free_energy": -7.528, "intermolecular_energy": -9.404, "internal_energy": -0.273}

$$$$
cand_012_out
     RDKit          3D

 40 42  0  0  0  0  0  0  0  0999 V2000
   77.1730   43.5580   -5.4050 C   0  0  0  0  0  0  0  0  0  0  0  0
   76.7810   43.8080   -4.0150 N   0  0  0  0  0  0  0  0  0  0  0  0
   77.8220   43.4870   -3.0310 C   0  0  0  0  0  0  0  0  0  0  0  0
   75.5380   43.2430   -3.6730 C   0  0  0  0  0  0  0  0  0  0  0  0
   75.3500   41.8540   -3.6040 C   0  0  0  0  0  0  0  0  0  0  0  0
   74.1120   41.3040   -3.2550 C   0  0  0  0  0  0  0  0  0  0  0  0
   73.0250   42.1280   -2.9550 C   0  0  0  0  0  0  0  0  0  0  0  0
   71.6980   41.5750   -2.6090 C   0  0  0  0  0  0  0  0  0  0  0  0
   71.7140   40.8230   -1.4400 O   0  0  0  0  0  0  0  0  0  0  0  0
   70.5480   40.2480   -1.0040 C   0  0  0  0  0  0  0  0  0  0  0  0
   70.6080   39.5130    0.1800 C   0  0  0  0  0  0  0  0  0  0  0  0
   69.4560   38.9000    0.6790 C   0  0  0  0  0  0  0  0  0  0  0  0
   68.2460   39.0240   -0.0060 C   0  0  0  0  0  0  0  0  0  0  0  0
   68.1890   39.7580   -1.1880 C   0  0  0  0  0  0  0  0  0  0  0  0
   66.9720   39.8370   -1.8080 O   0  0  0  0  0  0  0  0  0  0  0  0
   69.3410   40.3710   -1.6860 C   0  0  0  0  0  0  0  0  0  0  0  0
   69.3260   41.1510   -2.9250 C   0  0  0  0  0  0  0  0  0  0  0  0
   68.3020   41.3000   -3.5880 O   0  0  0  0  0  0  0  0  0  0  0  0
   70.6000   41.7640   -3.3640 C   0  0  0  0  0  0  0  0  0  0  0  0
   70.5780   42.4860   -4.5430 O   0  0  0  0  0  0  0  0  0  0  0  0
   73.2060   43.5160   -3.0300 C   0  0  0  0  0  0  0  0  0  0  0  0
   74.4500   44.0860   -3.3810 C   0  0  0  0  0  0  0  0  0  0  0  0
   74.5930   45.5860   -3.4440 C   0  0  0  0  0  0  0  0  0  0  0  0
   75.6170   46.0730   -2.6860 F   0  0  0  0  0  0  0  0  0  0  0  0
   73.4800   46.2410   -2.9840 F   0  0  0  0  0  0  0  0  0  0  0  0
   74.7790   46.0680   -4.7070 F   0  0  0  0  0  0  0  0  0  0  0  0
   78.1003   42.9666   -5.4238 H   0  0  0  0  0  0  0  0  0  0  0  0
   76.3735   43.0026   -5.9172 H   0  0  0  0  0  0  0  0  0  0  0  0
   77.3394   44.5171   -5.9172 H   0  0  0  0  0  0  0  0  0  0  0  0
   77.4177   43.6117   -2.0156 H   0  0  0  0  0  0  0  0  0  0  0  0
   78.1495   42.4461   -3.1700 H   0  0  0  0  0  0  0  0  0  0  0  0
   78.6788   44.1627   -3.1700 H   0  0  0  0  0  0  0  0  0  0  0  0
   76.1931   41.1842   -3.8289 H   0  0  0  0  0  0  0  0  0  0  0  0
   73.9934   40.2111   -3.2165 H   0  0  0  0  0  0  0  0  0  0  0  0
   71.5613   39.4161    0.7202 H   0  0  0  0  0  0  0  0  0  0  0  0
   69.5025   38.3194    1.6121 H   0  0  0  0  0  0  0  0  0  0  0  0
   67.3386   38.5425    0.3875 H   0  0  0  0  0  0  0  0  0  0  0  0
   66.9250   39.9300   -2.7400 H   0  0  0  0  0  0  0  0  0  0  0  0
   69.8970   42.3380   -5.1700 H   0  0  0  0  0  0  0  0  0  0  0  0
   72.3565   44.1792   -2.8096 H   0  0  0  0  0  0  0  0  0  0  0  0
  1  2  1  0
  2  3  1  0
  2  4  1  0
  4  5  2  0
  5  6  1  0
  6  7  2  0
  7  8  1  0
  8  9  1  0
  9 10  1  0
 10 11  2  0
 11 12  1  0
 12 13  2  0
 13 14  1  0
 14 15  1  0
 14 16  2  0
 16 17  1  0
 17 18  2  0
 17 19  1  0
 19 20  1  0
  7 21  1  0
 21 22  2  0
 22 23  1  0
 23 24  1  0
 23 25  1  0
 23 26  1  0
 22  4  1  0
 19  8  2  0
 16 10  1  0
  1 27  1  0
  1 28  1  0
  1 29  1  0
  3 30  1  0
  3 31  1  0
  3 32  1  0
  5 33  1  0
  6 34  1  0
 11 35  1  0
 12 36  1  0
 13 37  1  0
 15 38  1  0
 20 39  1  0
 21 40  1  0
M  END
>  <meeko>  (7) 
{"is_sidechain": [false], "free_energy": -7.517, "intermolecular_energy": -9.194, "internal_energy": -0.469}

$$$$
cand_012_out
     RDKit          3D

 40 42  0  0  0  0  0  0  0  0999 V2000
   72.9170   46.4560   -5.8260 C   0  0  0  0  0  0  0  0  0  0  0  0
   73.9150   45.3870   -5.7150 N   0  0  0  0  0  0  0  0  0  0  0  0
   74.4440   44.9250   -7.0030 C   0  0  0  0  0  0  0  0  0  0  0  0
   73.5020   44.3180   -4.8990 C   0  0  0  0  0  0  0  0  0  0  0  0
   72.4190   43.4960   -5.2480 C   0  0  0  0  0  0  0  0  0  0  0  0
   72.0220   42.4300   -4.4340 C   0  0  0  0  0  0  0  0  0  0  0  0
   72.7030   42.1480   -3.2470 C   0  0  0  0  0  0  0  0  0  0  0  0
   72.2900   41.0450   -2.3530 C   0  0  0  0  0  0  0  0  0  0  0  0
   70.9290   41.0580   -2.0730 O   0  0  0  0  0  0  0  0  0  0  0  0
   70.4110   40.0900   -1.2510 C   0  0  0  0  0  0  0  0  0  0  0  0
   69.0370   40.1350   -1.0070 C   0  0  0  0  0  0  0  0  0  0  0  0
   68.4470   39.1780   -0.1770 C   0  0  0  0  0  0  0  0  0  0  0  0
   69.2280   38.1790    0.4060 C   0  0  0  0  0  0  0  0  0  0  0  0
   70.5980   38.1380    0.1610 C   0  0  0  0  0  0  0  0  0  0  0  0
   71.3040   37.1340    0.7660 O   0  0  0  0  0  0  0  0  0  0  0  0
   71.1890   39.0940   -0.6690 C   0  0  0  0  0  0  0  0  0  0  0  0
   72.6250   39.0880   -0.9520 C   0  0  0  0  0  0  0  0  0  0  0  0
   73.3800   38.2450   -0.4710 O   0  0  0  0  0  0  0  0  0  0  0  0
   73.1510   40.1420   -1.8490 C   0  0  0  0  0  0  0  0  0  0  0  0
   74.5120   40.1360   -2.0980 O   0  0  0  0  0  0  0  0  0  0  0  0
   73.7810   42.9710   -2.8900 C   0  0  0  0  0  0  0  0  0  0  0  0
   74.1930   44.0500   -3.7030 C   0  0  0  0  0  0  0  0  0  0  0  0
   75.3610   44.9040   -3.2750 C   0  0  0  0  0  0  0  0  0  0  0  0
   76.3170   45.0470   -4.2370 F   0  0  0  0  0  0  0  0  0  0  0  0
   76.0270   44.3810   -2.1980 F   0  0  0  0  0  0  0  0  0  0  0  0
   75.0080   46.1630   -2.8850 F   0  0  0  0  0  0  0  0  0  0  0  0
   72.6139   46.7806   -4.8196 H   0  0  0  0  0  0  0  0  0  0  0  0
   73.3508   47.3075   -6.3708 H   0  0  0  0  0  0  0  0  0  0  0  0
   72.0378   46.0817   -6.3708 H   0  0  0  0  0  0  0  0  0  0  0  0
   75.2620   44.2106   -6.8284 H   0  0  0  0  0  0  0  0  0  0  0  0
   73.6425   44.4325   -7.5732 H   0  0  0  0  0  0  0  0  0  0  0  0
   74.8241   45.7855   -7.5732 H   0  0  0  0  0  0  0  0  0  0  0  0
   71.8711   43.6943   -6.1810 H   0  0  0  0  0  0  0  0  0  0  0  0
   71.1652   41.8075   -4.7313 H   0  0  0  0  0  0  0  0  0  0  0  0
   68.4207   40.9216   -1.4668 H   0  0  0  0  0  0  0  0  0  0  0  0
   67.3648   39.2121    0.0172 H   0  0  0  0  0  0  0  0  0  0  0  0
   68.7620   37.4254    1.0579 H   0  0  0  0  0  0  0  0  0  0  0  0
   72.2340   37.0870    0.6640 H   0  0  0  0  0  0  0  0  0  0  0  0
   74.8330   40.3750   -2.9460 H   0  0  0  0  0  0  0  0  0  0  0  0
   74.3198   42.7709   -1.9521 H   0  0  0  0  0  0  0  0  0  0  0  0
  1  2  1  0
  2  3  1  0
  2  4  1  0
  4  5  2  0
  5  6  1  0
  6  7  2  0
  7  8  1  0
  8  9  1  0
  9 10  1  0
 10 11  2  0
 11 12  1  0
 12 13  2  0
 13 14  1  0
 14 15  1  0
 14 16  2  0
 16 17  1  0
 17 18  2  0
 17 19  1  0
 19 20  1  0
  7 21  1  0
 21 22  2  0
 22 23  1  0
 23 24  1  0
 23 25  1  0
 23 26  1  0
 22  4  1  0
 19  8  2  0
 16 10  1  0
  1 27  1  0
  1 28  1  0
  1 29  1  0
  3 30  1  0
  3 31  1  0
  3 32  1  0
  5 33  1  0
  6 34  1  0
 11 35  1  0
 12 36  1  0
 13 37  1  0
 15 38  1  0
 20 39  1  0
 21 40  1  0
M  END
>  <meeko>  (8) 
{"is_sidechain": [false], "free_energy": -7.501, "intermolecular_energy": -9.34, "internal_energy": -0.303}

$$$$
cand_012_out
     RDKit          3D

 40 42  0  0  0  0  0  0  0  0999 V2000
   68.3400   46.9400   -4.0790 C   0  0  0  0  0  0  0  0  0  0  0  0
   68.0010   45.6860   -4.7580 N   0  0  0  0  0  0  0  0  0  0  0  0
   66.6490   45.6600   -5.3270 C   0  0  0  0  0  0  0  0  0  0  0  0
   68.2730   44.5410   -3.9870 C   0  0  0  0  0  0  0  0  0  0  0  0
   67.5820   44.2700   -2.7950 C   0  0  0  0  0  0  0  0  0  0  0  0
   67.8540   43.1240   -2.0410 C   0  0  0  0  0  0  0  0  0  0  0  0
   68.8200   42.2060   -2.4610 C   0  0  0  0  0  0  0  0  0  0  0  0
   69.1470   41.0000   -1.6720 C   0  0  0  0  0  0  0  0  0  0  0  0
   70.5110   40.7340   -1.6330 O   0  0  0  0  0  0  0  0  0  0  0  0
   70.9540   39.6390   -0.9360 C   0  0  0  0  0  0  0  0  0  0  0  0
   72.3320   39.4170   -0.9150 C   0  0  0  0  0  0  0  0  0  0  0  0
   72.8490   38.3190   -0.2230 C   0  0  0  0  0  0  0  0  0  0  0  0
   71.9890   37.4440    0.4450 C   0  0  0  0  0  0  0  0  0  0  0  0
   70.6150   37.6690    0.4210 C   0  0  0  0  0  0  0  0  0  0  0  0
   69.8320   36.7730    1.0960 O   0  0  0  0  0  0  0  0  0  0  0  0
   70.0990   38.7680   -0.2700 C   0  0  0  0  0  0  0  0  0  0  0  0
   68.6610   39.0390   -0.3210 C   0  0  0  0  0  0  0  0  0  0  0  0
   67.8410   38.3130    0.2370 O   0  0  0  0  0  0  0  0  0  0  0  0
   68.2160   40.2330   -1.0760 C   0  0  0  0  0  0  0  0  0  0  0  0
   66.8550   40.4720   -1.1310 O   0  0  0  0  0  0  0  0  0  0  0  0
   69.5180   42.4770   -3.6480 C   0  0  0  0  0  0  0  0  0  0  0  0
   69.2530   43.6290   -4.4190 C   0  0  0  0  0  0  0  0  0  0  0  0
   70.0300   43.8720   -5.6890 C   0  0  0  0  0  0  0  0  0  0  0  0
   69.2650   43.8270   -6.8180 F   0  0  0  0  0  0  0  0  0  0  0  0
   71.0080   42.9340   -5.8950 F   0  0  0  0  0  0  0  0  0  0  0  0
   70.6880   45.0670   -5.7120 F   0  0  0  0  0  0  0  0  0  0  0  0
   68.2994   46.7899   -2.9900 H   0  0  0  0  0  0  0  0  0  0  0  0
   69.3545   47.2512   -4.3687 H   0  0  0  0  0  0  0  0  0  0  0  0
   67.6205   47.7200   -4.3687 H   0  0  0  0  0  0  0  0  0  0  0  0
   65.9089   45.6458   -4.5133 H   0  0  0  0  0  0  0  0  0  0  0  0
   66.4949   46.5553   -5.9472 H   0  0  0  0  0  0  0  0  0  0  0  0
   66.5294   44.7594   -5.9472 H   0  0  0  0  0  0  0  0  0  0  0  0
   66.8111   44.9734   -2.4472 H   0  0  0  0  0  0  0  0  0  0  0  0
   67.3014   42.9434   -1.1072 H   0  0  0  0  0  0  0  0  0  0  0  0
   73.0093   40.1051   -1.4421 H   0  0  0  0  0  0  0  0  0  0  0  0
   73.9347   38.1432   -0.2041 H   0  0  0  0  0  0  0  0  0  0  0  0
   72.3964   36.5790    0.9889 H   0  0  0  0  0  0  0  0  0  0  0  0
   70.2280   36.0670    1.5680 H   0  0  0  0  0  0  0  0  0  0  0  0
   66.2570   39.7560   -1.2180 H   0  0  0  0  0  0  0  0  0  0  0  0
   70.2923   41.7728   -3.9864 H   0  0  0  0  0  0  0  0  0  0  0  0
  1  2  1  0
  2  3  1  0
  2  4  1  0
  4  5  2  0
  5  6  1  0
  6  7  2  0
  7  8  1  0
  8  9  1  0
  9 10  1  0
 10 11  2  0
 11 12  1  0
 12 13  2  0
 13 14  1  0
 14 15  1  0
 14 16  2  0
 16 17  1  0
 17 18  2  0
 17 19  1  0
 19 20  1  0
  7 21  1  0
 21 22  2  0
 22 23  1  0
 23 24  1  0
 23 25  1  0
 23 26  1  0
 22  4  1  0
 19  8  2  0
 16 10  1  0
  1 27  1  0
  1 28  1  0
  1 29  1  0
  3 30  1  0
  3 31  1  0
  3 32  1  0
  5 33  1  0
  6 34  1  0
 11 35  1  0
 12 36  1  0
 13 37  1  0
 15 38  1  0
 20 39  1  0
 21 40  1  0
M  END
>  <meeko>  (9) 
{"is_sidechain": [false], "free_energy": -7.43, "intermolecular_energy": -9.26, "internal_energy": -0.296}

$$$$
