cand_021_out
     RDKit          3D

 36 38  0  0  0  0  0  0  0  0999 V2000
   67.7730   38.9450   -0.2080 C   0  0  0  0  0  0  0  0  0  0  0  0
   68.9030   38.9090    0.5080 C   0  0  0  0  0  0  0  0  0  0  0  0
   70.2340   38.8980   -0.1130 C   0  0  0  0  0  0  0  0  0  0  0  0
   70.5850   39.9310   -1.0010 C   0  0  0  0  0  0  0  0  0  0  0  0
   71.8450   39.9740   -1.6150 C   0  0  0  0  0  0  0  0  0  0  0  0
   72.2230   41.0670   -2.5330 C   0  0  0  0  0  0  0  0  0  0  0  0
   73.3890   41.7180   -2.1500 O   0  0  0  0  0  0  0  0  0  0  0  0
   73.8520   42.7570   -2.9170 C   0  0  0  0  0  0  0  0  0  0  0  0
   75.0170   43.3920   -2.4860 C   0  0  0  0  0  0  0  0  0  0  0  0
   75.5430   44.4570   -3.2240 C   0  0  0  0  0  0  0  0  0  0  0  0
   74.9040   44.8830   -4.3890 C   0  0  0  0  0  0  0  0  0  0  0  0
   73.7410   44.2470   -4.8160 C   0  0  0  0  0  0  0  0  0  0  0  0
   73.1680   44.7160   -5.9660 O   0  0  0  0  0  0  0  0  0  0  0  0
   73.2150   43.1840   -4.0790 C   0  0  0  0  0  0  0  0  0  0  0  0
   71.9960   42.4870   -4.4920 C   0  0  0  0  0  0  0  0  0  0  0  0
   71.3810   42.7990   -5.5100 O   0  0  0  0  0  0  0  0  0  0  0  0
   71.5170   41.3780   -3.6370 C   0  0  0  0  0  0  0  0  0  0  0  0
   70.3720   40.7180   -4.0430 O   0  0  0  0  0  0  0  0  0  0  0  0
   72.7720   38.9720   -1.3050 C   0  0  0  0  0  0  0  0  0  0  0  0
   72.4390   37.9430   -0.4190 C   0  0  0  0  0  0  0  0  0  0  0  0
   71.1720   37.8910    0.1850 C   0  0  0  0  0  0  0  0  0  0  0  0
   70.8380   36.7560    1.1210 C   0  0  0  0  0  0  0  0  0  0  0  0
   71.9140   36.3370    1.8460 F   0  0  0  0  0  0  0  0  0  0  0  0
   70.3820   35.6410    0.4780 F   0  0  0  0  0  0  0  0  0  0  0  0
   66.7985   38.9519    0.3023 H   0  0  0  0  0  0  0  0  0  0  0  0
   67.8186   38.9677   -1.3068 H   0  0  0  0  0  0  0  0  0  0  0  0
   68.8322   38.8868    1.6055 H   0  0  0  0  0  0  0  0  0  0  0  0
   69.8540   40.7236   -1.2188 H   0  0  0  0  0  0  0  0  0  0  0  0
   75.5207   43.0557   -1.5677 H   0  0  0  0  0  0  0  0  0  0  0  0
   76.4613   44.9594   -2.8858 H   0  0  0  0  0  0  0  0  0  0  0  0
   75.3185   45.7204   -4.9696 H   0  0  0  0  0  0  0  0  0  0  0  0
   72.2390   44.8410   -6.0100 H   0  0  0  0  0  0  0  0  0  0  0  0
   70.4320   39.8560   -4.4060 H   0  0  0  0  0  0  0  0  0  0  0  0
   73.7720   38.9944   -1.7628 H   0  0  0  0  0  0  0  0  0  0  0  0
   73.1802   37.1627   -0.1916 H   0  0  0  0  0  0  0  0  0  0  0  0
   70.0573   37.1846    1.7666 H   0  0  0  0  0  0  0  0  0  0  0  0
  1  2  2  0
  2  3  1  0
  3  4  2  0
  4  5  1  0
  5  6  1  0
  6  7  1  0
  7  8  1  0
  8  9  2  0
  9 10  1  0
 10 11  2  0
 11 12  1  0
 12 13  1  0
 12 14  2  0
 14 15  1  0
 15 16  2  0
 15 17  1  0
 17 18  1  0
  5 19  2  0
 19 20  1  0
 20 21  2  0
 21 22  1  0
 22 23  1  0
 22 24  1  0
 21  3  1  0
 17  6  2  0
 14  8  1  0
  1 25  1  0
  1 26  1  0
  2 27  1  0
  4 28  1  0
  9 29  1  0
 10 30  1  0
 11 31  1  0
 13 32  1  0
 18 33  1  0
 19 34  1  0
 20 35  1  0
 22 36  1  0
M  END
>  <meeko>  (1) 
{"is_sidechain": [false], "free_energy": -8.102, "intermolecular_energy": -9.997, "internal_energy": -0.505}

$$$$
cand_021_out
     RDKit          3D

 36 38  0  0  0  0  0  0  0  0999 V2000
   73.4710   39.2950   -1.1470 C   0  0  0  0  0  0  0  0  0  0  0  0
   72.6330   39.4890   -0.1210 C   0  0  0  0  0  0  0  0  0  0  0  0
   71.1730   39.4770   -0.2760 C   0  0  0  0  0  0  0  0  0  0  0  0
   70.5560   40.4930   -1.0280 C   0  0  0  0  0  0  0  0  0  0  0  0
   69.1670   40.5250   -1.2160 C   0  0  0  0  0  0  0  0  0  0  0  0
   68.5180   41.5790   -2.0220 C   0  0  0  0  0  0  0  0  0  0  0  0
   67.6500   42.3710   -1.2790 O   0  0  0  0  0  0  0  0  0  0  0  0
   66.9790   43.3890   -1.9070 C   0  0  0  0  0  0  0  0  0  0  0  0
   66.1050   44.1480   -1.1270 C   0  0  0  0  0  0  0  0  0  0  0  0
   65.3930   45.2020   -1.7060 C   0  0  0  0  0  0  0  0  0  0  0  0
   65.5540   45.4960   -3.0610 C   0  0  0  0  0  0  0  0  0  0  0  0
   66.4270   44.7360   -3.8360 C   0  0  0  0  0  0  0  0  0  0  0  0
   66.5370   45.0790   -5.1560 O   0  0  0  0  0  0  0  0  0  0  0  0
   67.1390   43.6820   -3.2580 C   0  0  0  0  0  0  0  0  0  0  0  0
   68.0660   42.8600   -4.0370 C   0  0  0  0  0  0  0  0  0  0  0  0
   68.2680   43.0600   -5.2330 O   0  0  0  0  0  0  0  0  0  0  0  0
   68.7650   41.7620   -3.3320 C   0  0  0  0  0  0  0  0  0  0  0  0
   69.6490   40.9990   -4.0730 O   0  0  0  0  0  0  0  0  0  0  0  0
   68.3950   39.5000   -0.6560 C   0  0  0  0  0  0  0  0  0  0  0  0
   68.9950   38.4820    0.0880 C   0  0  0  0  0  0  0  0  0  0  0  0
   70.3850   38.4570    0.2890 C   0  0  0  0  0  0  0  0  0  0  0  0
   71.0000   37.3530    1.1150 C   0  0  0  0  0  0  0  0  0  0  0  0
   70.5510   36.1160    0.7590 F   0  0  0  0  0  0  0  0  0  0  0  0
   70.7310   37.4630    2.4500 F   0  0  0  0  0  0  0  0  0  0  0  0
   74.5581   39.3132   -0.9802 H   0  0  0  0  0  0  0  0  0  0  0  0
   73.0724   39.1174   -2.1567 H   0  0  0  0  0  0  0  0  0  0  0  0
   73.0557   39.6646    0.8792 H   0  0  0  0  0  0  0  0  0  0  0  0
   71.1776   41.2806   -1.4790 H   0  0  0  0  0  0  0  0  0  0  0  0
   65.9770   43.9171   -0.0592 H   0  0  0  0  0  0  0  0  0  0  0  0
   64.7041   45.8013   -1.0925 H   0  0  0  0  0  0  0  0  0  0  0  0
   64.9929   46.3257   -3.5157 H   0  0  0  0  0  0  0  0  0  0  0  0
   67.3670   45.3440   -5.5040 H   0  0  0  0  0  0  0  0  0  0  0  0
   70.3000   41.4170   -4.6020 H   0  0  0  0  0  0  0  0  0  0  0  0
   67.3049   39.4966   -0.8036 H   0  0  0  0  0  0  0  0  0  0  0  0
   68.3701   37.6881    0.5230 H   0  0  0  0  0  0  0  0  0  0  0  0
   72.0770   37.4633    0.9202 H   0  0  0  0  0  0  0  0  0  0  0  0
  1  2  2  0
  2  3  1  0
  3  4  2  0
  4  5  1  0
  5  6  1  0
  6  7  1  0
  7  8  1  0
  8  9  2  0
  9 10  1  0
 10 11  2  0
 11 12  1  0
 12 13  1  0
 12 14  2  0
 14 15  1  0
 15 16  2  0
 15 17  1  0
 17 18  1  0
  5 19  2  0
 19 20  1  0
 20 21  2  0
 21 22  1  0
 22 23  1  0
 22 24  1  0
 21  3  1  0
 17  6  2  0
 14  8  1  0
  1 25  1  0
  1 26  1  0
  2 27  1  0
  4 28  1  0
  9 29  1  0
 10 30  1  0
 11 31  1  0
 13 32  1  0
 18 33  1  0
 19 34  1  0
 20 35  1  0
 22 36  1  0
M  END
>  <meeko>  (2) 
{"is_sidechain": [false], "free_energy": -7.967, "intermolecular_energy": -9.8, "internal_energy": -0.535}

$$$$
cand_021_out
     RDKit          3D

 36 38  0  0  0  0  0  0  0  0999 V2000
   69.6090   42.8670   -1.0260 C   0  0  0  0  0  0  0  0  0  0  0  0
   70.3030   41.8680   -0.4670 C   0  0  0  0  0  0  0  0  0  0  0  0
   71.1990   40.9960   -1.2370 C   0  0  0  0  0  0  0  0  0  0  0  0
   72.1550   41.5780   -2.0900 C   0  0  0  0  0  0  0  0  0  0  0  0
   73.0410   40.7940   -2.8410 C   0  0  0  0  0  0  0  0  0  0  0  0
   74.0580   41.4030   -3.7230 C   0  0  0  0  0  0  0  0  0  0  0  0
   73.5370   41.8220   -4.9410 O   0  0  0  0  0  0  0  0  0  0  0  0
   74.3770   42.4050   -5.8560 C   0  0  0  0  0  0  0  0  0  0  0  0
   73.8160   42.7960   -7.0720 C   0  0  0  0  0  0  0  0  0  0  0  0
   74.6160   43.3970   -8.0470 C   0  0  0  0  0  0  0  0  0  0  0  0
   75.9750   43.6080   -7.8050 C   0  0  0  0  0  0  0  0  0  0  0  0
   76.5320   43.2160   -6.5900 C   0  0  0  0  0  0  0  0  0  0  0  0
   77.8690   43.4520   -6.4190 O   0  0  0  0  0  0  0  0  0  0  0  0
   75.7320   42.6140   -5.6160 C   0  0  0  0  0  0  0  0  0  0  0  0
   76.2770   42.1880   -4.3260 C   0  0  0  0  0  0  0  0  0  0  0  0
   77.4620   42.3450   -4.0350 O   0  0  0  0  0  0  0  0  0  0  0  0
   75.3470   41.5520   -3.3660 C   0  0  0  0  0  0  0  0  0  0  0  0
   75.8680   41.1660   -2.1450 O   0  0  0  0  0  0  0  0  0  0  0  0
   72.9760   39.4020   -2.7080 C   0  0  0  0  0  0  0  0  0  0  0  0
   72.0360   38.8100   -1.8610 C   0  0  0  0  0  0  0  0  0  0  0  0
   71.1380   39.5950   -1.1180 C   0  0  0  0  0  0  0  0  0  0  0  0
   70.1220   38.9240   -0.2270 C   0  0  0  0  0  0  0  0  0  0  0  0
   70.3780   37.5980   -0.0410 F   0  0  0  0  0  0  0  0  0  0  0  0
   68.8500   38.9790   -0.7200 F   0  0  0  0  0  0  0  0  0  0  0  0
   68.9502   43.4931   -0.4063 H   0  0  0  0  0  0  0  0  0  0  0  0
   69.6975   43.0617   -2.1050 H   0  0  0  0  0  0  0  0  0  0  0  0
   70.1977   41.6931    0.6139 H   0  0  0  0  0  0  0  0  0  0  0  0
   72.2080   42.6739   -2.1691 H   0  0  0  0  0  0  0  0  0  0  0  0
   72.7453   42.6313   -7.2629 H   0  0  0  0  0  0  0  0  0  0  0  0
   74.1748   43.7044   -9.0066 H   0  0  0  0  0  0  0  0  0  0  0  0
   76.6043   44.0828   -8.5722 H   0  0  0  0  0  0  0  0  0  0  0  0
   78.3340   43.9840   -7.0360 H   0  0  0  0  0  0  0  0  0  0  0  0
   76.7470   41.3980   -1.9150 H   0  0  0  0  0  0  0  0  0  0  0  0
   73.6723   38.7678   -3.2763 H   0  0  0  0  0  0  0  0  0  0  0  0
   71.9982   37.7141   -1.7744 H   0  0  0  0  0  0  0  0  0  0  0  0
   70.2034   39.4872    0.7144 H   0  0  0  0  0  0  0  0  0  0  0  0
  1  2  2  0
  2  3  1  0
  3  4  2  0
  4  5  1  0
  5  6  1  0
  6  7  1  0
  7  8  1  0
  8  9  2  0
  9 10  1  0
 10 11  2  0
 11 12  1  0
 12 13  1  0
 12 14  2  0
 14 15  1  0
 15 16  2  0
 15 17  1  0
 17 18  1  0
  5 19  2  0
 19 20  1  0
 20 21  2  0
 21 22  1  0
 22 23  1  0
 22 24  1  0
 21  3  1  0
 17  6  2  0
 14  8  1  0
  1 25  1  0
  1 26  1  0
  2 27  1  0
  4 28  1  0
  9 29  1  0
 10 30  1  0
 11 31  1  0
 13 32  1  0
 18 33  1  0
 19 34  1  0
 20 35  1  0
 22 36  1  0
M  END
>  <meeko>  (3) 
{"is_sidechain": [false], "free_energy": -7.859, "intermolecular_energy": -9.541, "internal_energy": -0.661}

$$$$
cand_021_out
     RDKit          3D

 36 38  0  0  0  0  0  0  0  0999 V2000
   73.7930   46.6760   -3.1230 C   0  0  0  0  0  0  0  0  0  0  0  0
   74.3330   45.6220   -3.7480 C   0  0  0  0  0  0  0  0  0  0  0  0
   74.2380   44.2550   -3.2210 C   0  0  0  0  0  0  0  0  0  0  0  0
   72.9700   43.6690   -3.0590 C   0  0  0  0  0  0  0  0  0  0  0  0
   72.8220   42.3630   -2.5690 C   0  0  0  0  0  0  0  0  0  0  0  0
   71.4920   41.7390   -2.4160 C   0  0  0  0  0  0  0  0  0  0  0  0
   71.3870   40.9630   -1.2690 O   0  0  0  0  0  0  0  0  0  0  0  0
   70.2010   40.3240   -1.0060 C   0  0  0  0  0  0  0  0  0  0  0  0
   70.1450   39.5420    0.1480 C   0  0  0  0  0  0  0  0  0  0  0  0
   68.9660   38.8660    0.4740 C   0  0  0  0  0  0  0  0  0  0  0  0
   67.8470   38.9730   -0.3520 C   0  0  0  0  0  0  0  0  0  0  0  0
   67.9060   39.7540   -1.5040 C   0  0  0  0  0  0  0  0  0  0  0  0
   66.7730   39.8140   -2.2680 O   0  0  0  0  0  0  0  0  0  0  0  0
   69.0850   40.4290   -1.8310 C   0  0  0  0  0  0  0  0  0  0  0  0
   69.1900   41.2600   -3.0310 C   0  0  0  0  0  0  0  0  0  0  0  0
   68.2460   41.4100   -3.8050 O   0  0  0  0  0  0  0  0  0  0  0  0
   70.4860   41.9270   -3.2910 C   0  0  0  0  0  0  0  0  0  0  0  0
   70.5710   42.7210   -4.4190 O   0  0  0  0  0  0  0  0  0  0  0  0
   73.9750   41.6320   -2.2620 C   0  0  0  0  0  0  0  0  0  0  0  0
   75.2420   42.1990   -2.4240 C   0  0  0  0  0  0  0  0  0  0  0  0
   75.3900   43.5120   -2.9010 C   0  0  0  0  0  0  0  0  0  0  0  0
   76.7720   44.1010   -3.0450 C   0  0  0  0  0  0  0  0  0  0  0  0
   77.7570   43.1620   -2.9630 F   0  0  0  0  0  0  0  0  0  0  0  0
   77.0710   45.0210   -2.0800 F   0  0  0  0  0  0  0  0  0  0  0  0
   73.8904   47.6820   -3.5570 H   0  0  0  0  0  0  0  0  0  0  0  0
   73.2520   46.5358   -2.1755 H   0  0  0  0  0  0  0  0  0  0  0  0
   74.8692   45.7870   -4.6942 H   0  0  0  0  0  0  0  0  0  0  0  0
   72.0730   44.2485   -3.3228 H   0  0  0  0  0  0  0  0  0  0  0  0
   71.0270   39.4577    0.7999 H   0  0  0  0  0  0  0  0  0  0  0  0
   68.9204   38.2487    1.3833 H   0  0  0  0  0  0  0  0  0  0  0  0
   66.9192   38.4413   -0.0940 H   0  0  0  0  0  0  0  0  0  0  0  0
   65.9400   39.6120   -1.8890 H   0  0  0  0  0  0  0  0  0  0  0  0
   69.7980   42.9270   -4.9080 H   0  0  0  0  0  0  0  0  0  0  0  0
   73.8832   40.6011   -1.8895 H   0  0  0  0  0  0  0  0  0  0  0  0
   76.1361   41.6088   -2.1745 H   0  0  0  0  0  0  0  0  0  0  0  0
   76.7425   44.5694   -4.0399 H   0  0  0  0  0  0  0  0  0  0  0  0
  1  2  2  0
  2  3  1  0
  3  4  2  0
  4  5  1  0
  5  6  1  0
  6  7  1  0
  7  8  1  0
  8  9  2  0
  9 10  1  0
 10 11  2  0
 11 12  1  0
 12 13  1  0
 12 14  2  0
 14 15  1  0
 15 16  2  0
 15 17  1  0
 17 18  1  0
  5 19  2  0
 19 20  1  0
 20 21  2  0
 21 22  1  0
 22 23  1  0
 22 24  1  0
 21  3  1  0
 17  6  2  0
 14  8  1  0
  1 25  1  0
  1 26  1  0
  2 27  1  0
  4 28  1  0
  9 29  1  0
 10 30  1  0
 11 31  1  0
 13 32  1  0
 18 33  1  0
 19 34  1  0
 20 35  1  0
 22 36  1  0
M  END
>  <meeko>  (4) 
{"is_sidechain": [false], "free_energy": -7.582, "intermolecular_energy": -9.562, "internal_energy": -0.297}

$$$$
cand_021_out
     RDKit          3D

 36 38  0  0  0  0  0  0  0  0999 V2000
   76.5070   43.3620   -2.1140 C   0  0  0  0  0  0  0  0  0  0  0  0
   75.5380   43.8520   -2.8980 C   0  0  0  0  0  0  0  0  0  0  0  0
   74.4750   43.0120   -3.4630 C   0  0  0  0  0  0  0  0  0  0  0  0
   73.7430   42.1670   -2.6100 C   0  0  0  0  0  0  0  0  0  0  0  0
   72.7110   41.3500   -3.0950 C   0  0  0  0  0  0  0  0  0  0  0  0
   71.9280   40.4760   -2.1980 C   0  0  0  0  0  0  0  0  0  0  0  0
   70.5690   40.7670   -2.2100 O   0  0  0  0  0  0  0  0  0  0  0  0
   69.7260   40.0290   -1.4190 C   0  0  0  0  0  0  0  0  0  0  0  0
   68.3710   40.3650   -1.4500 C   0  0  0  0  0  0  0  0  0  0  0  0
   67.4590   39.6510   -0.6680 C   0  0  0  0  0  0  0  0  0  0  0  0
   67.9000   38.6030    0.1410 C   0  0  0  0  0  0  0  0  0  0  0  0
   69.2530   38.2700    0.1700 C   0  0  0  0  0  0  0  0  0  0  0  0
   69.6160   37.2330    0.9840 O   0  0  0  0  0  0  0  0  0  0  0  0
   70.1650   38.9850   -0.6110 C   0  0  0  0  0  0  0  0  0  0  0  0
   71.5930   38.6670   -0.6110 C   0  0  0  0  0  0  0  0  0  0  0  0
   72.0590   37.7540    0.0690 O   0  0  0  0  0  0  0  0  0  0  0  0
   72.4780   39.4890   -1.4670 C   0  0  0  0  0  0  0  0  0  0  0  0
   73.8240   39.1730   -1.4710 O   0  0  0  0  0  0  0  0  0  0  0  0
   72.4000   41.4090   -4.4580 C   0  0  0  0  0  0  0  0  0  0  0  0
   73.1150   42.2480   -5.3170 C   0  0  0  0  0  0  0  0  0  0  0  0
   74.1580   43.0560   -4.8340 C   0  0  0  0  0  0  0  0  0  0  0  0
   74.9240   43.9360   -5.7910 C   0  0  0  0  0  0  0  0  0  0  0  0
   74.2470   44.1650   -6.9530 F   0  0  0  0  0  0  0  0  0  0  0  0
   76.1230   43.4060   -6.1720 F   0  0  0  0  0  0  0  0  0  0  0  0
   77.2824   44.0319   -1.7141 H   0  0  0  0  0  0  0  0  0  0  0  0
   76.5275   42.2896   -1.8700 H   0  0  0  0  0  0  0  0  0  0  0  0
   75.5387   44.9277   -3.1279 H   0  0  0  0  0  0  0  0  0  0  0  0
   73.9853   42.1462   -1.5372 H   0  0  0  0  0  0  0  0  0  0  0  0
   68.0222   41.1899   -2.0886 H   0  0  0  0  0  0  0  0  0  0  0  0
   66.3915   39.9156   -0.6902 H   0  0  0  0  0  0  0  0  0  0  0  0
   67.1810   38.0407    0.7548 H   0  0  0  0  0  0  0  0  0  0  0  0
   69.1320   37.0610    1.7690 H   0  0  0  0  0  0  0  0  0  0  0  0
   74.1420   38.4840   -2.0200 H   0  0  0  0  0  0  0  0  0  0  0  0
   71.5843   40.7885   -4.8575 H   0  0  0  0  0  0  0  0  0  0  0  0
   72.8576   42.2762   -6.3861 H   0  0  0  0  0  0  0  0  0  0  0  0
   75.0690   44.8635   -5.2177 H   0  0  0  0  0  0  0  0  0  0  0  0
  1  2  2  0
  2  3  1  0
  3  4  2  0
  4  5  1  0
  5  6  1  0
  6  7  1  0
  7  8  1  0
  8  9  2  0
  9 10  1  0
 10 11  2  0
 11 12  1  0
 12 13  1  0
 12 14  2  0
 14 15  1  0
 15 16  2  0
 15 17  1  0
 17 18  1  0
  5 19  2  0
 19 20  1  0
 20 21  2  0
 21 22  1  0
 22 23  1  0
 22 24  1  0
 21  3  1  0
 17  6  2  0
 14  8  1  0
  1 25  1  0
  1 26  1  0
  2 27  1  0
  4 28  1  0
  9 29  1  0
 10 30  1  0
 11 31  1  0
 13 32  1  0
 18 33  1  0
 19 34  1  0
 20 35  1  0
 22 36  1  0
M  END
>  <meeko>  (5) 
{"is_sidechain": [false], "free_energy": -7.579, "intermolecular_energy": -9.303, "internal_energy": -0.553}

$$$$
cand_021_out
     RDKit          3D

 36 38  0  0  0  0  0  0  0  0999 V2000
   70.3170   37.5190    0.5010 C   0  0  0  0  0  0  0  0  0  0  0  0
   69.6050   38.6520    0.4700 C   0  0  0  0  0  0  0  0  0  0  0  0
   69.7080   39.6230   -0.6270 C   0  0  0  0  0  0  0  0  0  0  0  0
   70.9530   40.2160   -0.9030 C   0  0  0  0  0  0  0  0  0  0  0  0
   71.1100   41.1420   -1.9440 C   0  0  0  0  0  0  0  0  0  0  0  0
   72.4210   41.7520   -2.2480 C   0  0  0  0  0  0  0  0  0  0  0  0
   72.3260   43.0940   -2.5930 O   0  0  0  0  0  0  0  0  0  0  0  0
   73.4730   43.7820   -2.9010 C   0  0  0  0  0  0  0  0  0  0  0  0
   73.3300   45.1240   -3.2580 C   0  0  0  0  0  0  0  0  0  0  0  0
   74.4580   45.8820   -3.5810 C   0  0  0  0  0  0  0  0  0  0  0  0
   75.7260   45.2990   -3.5480 C   0  0  0  0  0  0  0  0  0  0  0  0
   75.8650   43.9600   -3.1910 C   0  0  0  0  0  0  0  0  0  0  0  0
   77.1360   43.4530   -3.1790 O   0  0  0  0  0  0  0  0  0  0  0  0
   74.7370   43.2020   -2.8690 C   0  0  0  0  0  0  0  0  0  0  0  0
   74.8390   41.7920   -2.4890 C   0  0  0  0  0  0  0  0  0  0  0  0
   75.9200   41.2090   -2.4290 O   0  0  0  0  0  0  0  0  0  0  0  0
   73.5820   41.0750   -2.1730 C   0  0  0  0  0  0  0  0  0  0  0  0
   73.6890   39.7480   -1.8020 O   0  0  0  0  0  0  0  0  0  0  0  0
   69.9960   41.4530   -2.7330 C   0  0  0  0  0  0  0  0  0  0  0  0
   68.7550   40.8670   -2.4740 C   0  0  0  0  0  0  0  0  0  0  0  0
   68.5930   39.9500   -1.4220 C   0  0  0  0  0  0  0  0  0  0  0  0
   67.2340   39.3500   -1.1580 C   0  0  0  0  0  0  0  0  0  0  0  0
   66.5940   38.9690   -2.2990 F   0  0  0  0  0  0  0  0  0  0  0  0
   66.3750   40.2110   -0.5350 F   0  0  0  0  0  0  0  0  0  0  0  0
   70.2054   36.8222    1.3448 H   0  0  0  0  0  0  0  0  0  0  0  0
   71.0137   37.2847   -0.3173 H   0  0  0  0  0  0  0  0  0  0  0  0
   68.9148   38.8644    1.2998 H   0  0  0  0  0  0  0  0  0  0  0  0
   71.8242   39.9470   -0.2876 H   0  0  0  0  0  0  0  0  0  0  0  0
   72.3310   45.5836   -3.2849 H   0  0  0  0  0  0  0  0  0  0  0  0
   74.3470   46.9398   -3.8617 H   0  0  0  0  0  0  0  0  0  0  0  0
   76.6138   45.8961   -3.8035 H   0  0  0  0  0  0  0  0  0  0  0  0
   77.5990   43.3680   -2.3680 H   0  0  0  0  0  0  0  0  0  0  0  0
   73.9630   39.1060   -2.4280 H   0  0  0  0  0  0  0  0  0  0  0  0
   70.0992   42.1655   -3.5647 H   0  0  0  0  0  0  0  0  0  0  0  0
   67.8912   41.1274   -3.1033 H   0  0  0  0  0  0  0  0  0  0  0  0
   67.4621   38.4866   -0.5158 H   0  0  0  0  0  0  0  0  0  0  0  0
  1  2  2  0
  2  3  1  0
  3  4  2  0
  4  5  1  0
  5  6  1  0
  6  7  1  0
  7  8  1  0
  8  9  2  0
  9 10  1  0
 10 11  2  0
 11 12  1  0
 12 13  1  0
 12 14  2  0
 14 15  1  0
 15 16  2  0
 15 17  1  0
 17 18  1  0
  5 19  2  0
 19 20  1  0
 20 21  2  0
 21 22  1  0
 22 23  1  0
 22 24  1  0
 21  3  1  0
 17  6  2  0
 14  8  1  0
  1 25  1  0
  1 26  1  0
  2 27  1  0
  4 28  1  0
  9 29  1  0
 10 30  1  0
 11 31  1  0
 13 32  1  0
 18 33  1  0
 19 34  1  0
 20 35  1  0
 22 36  1  0
M  END
>  <meeko>  (6) 
{"is_sidechain": [false], "free_energy": -7.569, "intermolecular_energy": -9.582, "internal_energy": -0.261}

$$$$
cand_021_out
     RDKit          3D

 36 38  0  0  0  0  0  0  0  0999 V2000
   76.4540   42.3330   -1.4590 C   0  0  0  0  0  0  0  0  0  0  0  0
   75.8800   42.3640   -2.6680 C   0  0  0  0  0  0  0  0  0  0  0  0
   74.5780   42.9990   -2.9110 C   0  0  0  0  0  0  0  0  0  0  0  0
   73.4020   42.2700   -2.6590 C   0  0  0  0  0  0  0  0  0  0  0  0
   72.1340   42.8300   -2.8650 C   0  0  0  0  0  0  0  0  0  0  0  0
   70.8970   42.0730   -2.5830 C   0  0  0  0  0  0  0  0  0  0  0  0
   70.9950   41.2800   -1.4470 O   0  0  0  0  0  0  0  0  0  0  0  0
   69.9150   40.5220   -1.0720 C   0  0  0  0  0  0  0  0  0  0  0  0
   70.0630   39.7270    0.0660 C   0  0  0  0  0  0  0  0  0  0  0  0
   69.0000   38.9320    0.5030 C   0  0  0  0  0  0  0  0  0  0  0  0
   67.7920   38.9340   -0.1960 C   0  0  0  0  0  0  0  0  0  0  0  0
   67.6470   39.7280   -1.3320 C   0  0  0  0  0  0  0  0  0  0  0  0
   66.4370   39.6810   -1.9680 O   0  0  0  0  0  0  0  0  0  0  0  0
   68.7100   40.5210   -1.7690 C   0  0  0  0  0  0  0  0  0  0  0  0
   68.6010   41.3700   -2.9560 C   0  0  0  0  0  0  0  0  0  0  0  0
   67.5680   41.4320   -3.6210 O   0  0  0  0  0  0  0  0  0  0  0  0
   69.7880   42.1670   -3.3410 C   0  0  0  0  0  0  0  0  0  0  0  0
   69.6700   42.9770   -4.4550 O   0  0  0  0  0  0  0  0  0  0  0  0
   72.0550   44.1560   -3.3080 C   0  0  0  0  0  0  0  0  0  0  0  0
   73.2140   44.8940   -3.5570 C   0  0  0  0  0  0  0  0  0  0  0  0
   74.4860   44.3290   -3.3640 C   0  0  0  0  0  0  0  0  0  0  0  0
   75.7190   45.1470   -3.6610 C   0  0  0  0  0  0  0  0  0  0  0  0
   76.2760   45.6850   -2.5400 F   0  0  0  0  0  0  0  0  0  0  0  0
   75.4780   46.2070   -4.4880 F   0  0  0  0  0  0  0  0  0  0  0  0
   77.4310   41.8453   -1.3264 H   0  0  0  0  0  0  0  0  0  0  0  0
   75.9487   42.7953   -0.5982 H   0  0  0  0  0  0  0  0  0  0  0  0
   76.4045   41.8950   -3.5135 H   0  0  0  0  0  0  0  0  0  0  0  0
   73.4793   41.2361   -2.2916 H   0  0  0  0  0  0  0  0  0  0  0  0
   71.0146   39.7264    0.6177 H   0  0  0  0  0  0  0  0  0  0  0  0
   69.1155   38.3041    1.3987 H   0  0  0  0  0  0  0  0  0  0  0  0
   66.9551   38.3094    0.1495 H   0  0  0  0  0  0  0  0  0  0  0  0
   65.6440   39.7690   -1.4750 H   0  0  0  0  0  0  0  0  0  0  0  0
   68.8340   43.3260   -4.6950 H   0  0  0  0  0  0  0  0  0  0  0  0
   71.0700   44.6210   -3.4614 H   0  0  0  0  0  0  0  0  0  0  0  0
   73.1300   45.9327   -3.9093 H   0  0  0  0  0  0  0  0  0  0  0  0
   76.3936   44.4213   -4.1388 H   0  0  0  0  0  0  0  0  0  0  0  0
  1  2  2  0
  2  3  1  0
  3  4  2  0
  4  5  1  0
  5  6  1  0
  6  7  1  0
  7  8  1  0
  8  9  2  0
  9 10  1  0
 10 11  2  0
 11 12  1  0
 12 13  1  0
 12 14  2  0
 14 15  1  0
 15 16  2  0
 15 17  1  0
 17 18  1  0
  5 19  2  0
 19 20  1  0
 20 21  2  0
 21 22  1  0
 22 23  1  0
 22 24  1  0
 21  3  1  0
 17  6  2  0
 14  8  1  0
  1 25  1  0
  1 26  1  0
  2 27  1  0
  4 28  1  0
  9 29  1  0
 10 30  1  0
 11 31  1  0
 13 32  1  0
 18 33  1  0
 19 34  1  0
 20 35  1  0
 22 36  1  0
M  END
>  <meeko>  (7) 
{"is_sidechain": [false], "free_energy": -7.543, "intermolecular_energy": -9.53, "internal_energy": -0.282}

$$$$
cand_021_out
     RDKit          3D

 36 38  0  0  0  0  0  0  0  0999 V2000
   76.3770   43.4010   -2.0730 C   0  0  0  0  0  0  0  0  0  0  0  0
   75.3970   43.9140   -2.8270 C   0  0  0  0  0  0  0  0  0  0  0  0
   74.3380   43.0870   -3.4190 C   0  0  0  0  0  0  0  0  0  0  0  0
   73.5740   42.2510   -2.5850 C   0  0  0  0  0  0  0  0  0  0  0  0
   72.5450   41.4480   -3.0960 C   0  0  0  0  0  0  0  0  0  0  0  0
   71.7290   40.5830   -2.2190 C   0  0  0  0  0  0  0  0  0  0  0  0
   72.4570   39.5410   -1.6570 O   0  0  0  0  0  0  0  0  0  0  0  0
   71.8180   38.6610   -0.8220 C   0  0  0  0  0  0  0  0  0  0  0  0
   72.5830   37.6200   -0.2920 C   0  0  0  0  0  0  0  0  0  0  0  0
   71.9930   36.6900    0.5670 C   0  0  0  0  0  0  0  0  0  0  0  0
   70.6410   36.8010    0.8970 C   0  0  0  0  0  0  0  0  0  0  0  0
   69.8800   37.8400    0.3670 C   0  0  0  0  0  0  0  0  0  0  0  0
   68.5630   37.8890    0.7320 O   0  0  0  0  0  0  0  0  0  0  0  0
   70.4700   38.7700   -0.4930 C   0  0  0  0  0  0  0  0  0  0  0  0
   69.7070   39.8770   -1.0710 C   0  0  0  0  0  0  0  0  0  0  0  0
   68.5140   40.0460   -0.8230 O   0  0  0  0  0  0  0  0  0  0  0  0
   70.4230   40.8030   -1.9770 C   0  0  0  0  0  0  0  0  0  0  0  0
   69.6970   41.8530   -2.5080 O   0  0  0  0  0  0  0  0  0  0  0  0
   72.2670   41.5110   -4.4660 C   0  0  0  0  0  0  0  0  0  0  0  0
   73.0130   42.3420   -5.3060 C   0  0  0  0  0  0  0  0  0  0  0  0
   74.0550   43.1370   -4.7970 C   0  0  0  0  0  0  0  0  0  0  0  0
   74.8540   44.0080   -5.7350 C   0  0  0  0  0  0  0  0  0  0  0  0
   74.2210   44.2240   -6.9220 F   0  0  0  0  0  0  0  0  0  0  0  0
   76.0670   43.4750   -6.0660 F   0  0  0  0  0  0  0  0  0  0  0  0
   77.1490   44.0611   -1.6507 H   0  0  0  0  0  0  0  0  0  0  0  0
   76.4103   42.3193   -1.8757 H   0  0  0  0  0  0  0  0  0  0  0  0
   75.3846   44.9985   -3.0104 H   0  0  0  0  0  0  0  0  0  0  0  0
   73.7890   42.2268   -1.5065 H   0  0  0  0  0  0  0  0  0  0  0  0
   73.6486   37.5325   -0.5506 H   0  0  0  0  0  0  0  0  0  0  0  0
   72.5945   35.8689    0.9841 H   0  0  0  0  0  0  0  0  0  0  0  0
   70.1775   36.0689    1.5746 H   0  0  0  0  0  0  0  0  0  0  0  0
   67.8920   37.7970    0.0830 H   0  0  0  0  0  0  0  0  0  0  0  0
   69.5560   42.6290   -2.0010 H   0  0  0  0  0  0  0  0  0  0  0  0
   71.4537   40.9007   -4.8856 H   0  0  0  0  0  0  0  0  0  0  0  0
   72.7817   42.3746   -6.3809 H   0  0  0  0  0  0  0  0  0  0  0  0
   74.9763   44.9420   -5.1670 H   0  0  0  0  0  0  0  0  0  0  0  0
  1  2  2  0
  2  3  1  0
  3  4  2  0
  4  5  1  0
  5  6  1  0
  6  7  1  0
  7  8  1  0
  8  9  2  0
  9 10  1  0
 10 11  2  0
 11 12  1  0
 12 13  1  0
 12 14  2  0
 14 15  1  0
 15 16  2  0
 15 17  1  0
 17 18  1  0
  5 19  2  0
 19 20  1  0
 20 21  2  0
 21 22  1  0
 22 23  1  0
 22 24  1  0
 21  3  1  0
 17  6  2  0
 14  8  1  0
  1 25  1  0
  1 26  1  0
  2 27  1  0
  4 28  1  0
  9 29  1  0
 10 30  1  0
 11 31  1  0
 13 32  1  0
 18 33  1  0
 19 34  1  0
 20 35  1  0
 22 36  1  0
M  END
>  <meeko>  (8) 
{"is_sidechain": [false], "free_energy": -7.513, "intermolecular_energy": -9.185, "internal_energy": -0.589}

$$$$
