cand_019_out
     RDKit          3D

 35 37  0  0  0  0  0  0  0  0999 V2000
   66.9650   42.3620   -4.6240 O   0  0  0  0  0  0  0  0  0  0  0  0
   68.0230   42.2750   -4.0050 C   0  0  0  0  0  0  0  0  0  0  0  0
   68.2210   41.2020   -3.0030 C   0  0  0  0  0  0  0  0  0  0  0  0
   67.1660   40.3320   -2.7960 O   0  0  0  0  0  0  0  0  0  0  0  0
   69.3940   41.1450   -2.3470 C   0  0  0  0  0  0  0  0  0  0  0  0
   69.6990   40.1260   -1.3180 C   0  0  0  0  0  0  0  0  0  0  0  0
   68.7040   39.5940   -0.4910 C   0  0  0  0  0  0  0  0  0  0  0  0
   69.0100   38.6160    0.4590 C   0  0  0  0  0  0  0  0  0  0  0  0
   70.3220   38.1430    0.6060 C   0  0  0  0  0  0  0  0  0  0  0  0
   70.6170   37.0810    1.6350 C   0  0  0  0  0  0  0  0  0  0  0  0
   70.6130   35.8270    1.1040 F   0  0  0  0  0  0  0  0  0  0  0  0
   71.3340   38.6490   -0.2380 C   0  0  0  0  0  0  0  0  0  0  0  0
   72.7610   38.1550   -0.1380 C   0  0  0  0  0  0  0  0  0  0  0  0
   72.8890   36.8540   -0.5210 F   0  0  0  0  0  0  0  0  0  0  0  0
   73.6250   38.8500   -0.9350 F   0  0  0  0  0  0  0  0  0  0  0  0
   71.0070   39.6380   -1.1850 C   0  0  0  0  0  0  0  0  0  0  0  0
   70.4380   42.0420   -2.5430 O   0  0  0  0  0  0  0  0  0  0  0  0
   70.2860   43.0420   -3.4700 C   0  0  0  0  0  0  0  0  0  0  0  0
   71.3620   43.9140   -3.6420 C   0  0  0  0  0  0  0  0  0  0  0  0
   71.2730   44.9550   -4.5690 C   0  0  0  0  0  0  0  0  0  0  0  0
   70.1090   45.1250   -5.3220 C   0  0  0  0  0  0  0  0  0  0  0  0
   69.0370   44.2530   -5.1470 C   0  0  0  0  0  0  0  0  0  0  0  0
   67.9290   44.4770   -5.9170 O   0  0  0  0  0  0  0  0  0  0  0  0
   69.1270   43.2120   -4.2200 C   0  0  0  0  0  0  0  0  0  0  0  0
   66.9340   39.7110   -3.4580 H   0  0  0  0  0  0  0  0  0  0  0  0
   67.6679   39.9500   -0.5898 H   0  0  0  0  0  0  0  0  0  0  0  0
   68.2120   38.2122    1.0994 H   0  0  0  0  0  0  0  0  0  0  0  0
   71.6080   37.2769    2.0704 H   0  0  0  0  0  0  0  0  0  0  0  0
   69.8254   37.1244    2.3975 H   0  0  0  0  0  0  0  0  0  0  0  0
   73.0080   38.2917    0.9252 H   0  0  0  0  0  0  0  0  0  0  0  0
   71.7974   40.0381   -1.8371 H   0  0  0  0  0  0  0  0  0  0  0  0
   72.2787   43.7817   -3.0485 H   0  0  0  0  0  0  0  0  0  0  0  0
   72.1210   45.6421   -4.7062 H   0  0  0  0  0  0  0  0  0  0  0  0
   70.0390   45.9454   -6.0514 H   0  0  0  0  0  0  0  0  0  0  0  0
   67.0780   44.4750   -5.5250 H   0  0  0  0  0  0  0  0  0  0  0  0
  1  2  2  0
  2  3  1  0
  3  4  1  0
  3  5  2  0
  5  6  1  0
  6  7  2  0
  7  8  1  0
  8  9  2  0
  9 10  1  0
 10 11  1  0
  9 12  1  0
 12 13  1  0
 13 14  1  0
 13 15  1  0
 12 16  2  0
  5 17  1  0
 17 18  1  0
 18 19  2  0
 19 20  1  0
 20 21  2  0
 21 22  1  0
 22 23  1  0
 22 24  2  0
 24  2  1  0
 16  6  1  0
 24 18  1  0
  4 25  1  0
  7 26  1  0
  8 27  1  0
 10 28  1  0
 10 29  1  0
 13 30  1  0
 16 31  1  0
 19 32  1  0
 20 33  1  0
 21 34  1  0
 23 35  1  0
M  END
>  <meeko>  (1) 
{"is_sidechain": [false], "free_energy": -8.142, "intermolecular_energy": -10.045, "internal_energy": -0.138}

$$$$
cand_019_out
     RDKit          3D

 35 37  0  0  0  0  0  0  0  0999 V2000
   70.0060   43.1650   -5.5600 O   0  0  0  0  0  0  0  0  0  0  0  0
   70.8790   42.9010   -4.7360 C   0  0  0  0  0  0  0  0  0  0  0  0
   70.7930   41.6690   -3.9180 C   0  0  0  0  0  0  0  0  0  0  0  0
   69.6900   40.8590   -4.1150 O   0  0  0  0  0  0  0  0  0  0  0  0
   71.7700   41.4200   -3.0270 C   0  0  0  0  0  0  0  0  0  0  0  0
   71.7820   40.2290   -2.1490 C   0  0  0  0  0  0  0  0  0  0  0  0
   72.7080   39.1960   -2.3210 C   0  0  0  0  0  0  0  0  0  0  0  0
   72.7150   38.0920   -1.4640 C   0  0  0  0  0  0  0  0  0  0  0  0
   71.7950   37.9930   -0.4100 C   0  0  0  0  0  0  0  0  0  0  0  0
   71.8350   36.7920    0.5010 C   0  0  0  0  0  0  0  0  0  0  0  0
   70.7540   35.9780    0.3340 F   0  0  0  0  0  0  0  0  0  0  0  0
   70.8700   39.0400   -0.2050 C   0  0  0  0  0  0  0  0  0  0  0  0
   69.8720   38.9960    0.9320 C   0  0  0  0  0  0  0  0  0  0  0  0
   68.8760   38.0930    0.7130 F   0  0  0  0  0  0  0  0  0  0  0  0
   70.4320   38.6310    2.1220 F   0  0  0  0  0  0  0  0  0  0  0  0
   70.8750   40.1420   -1.0810 C   0  0  0  0  0  0  0  0  0  0  0  0
   72.8600   42.2560   -2.8180 O   0  0  0  0  0  0  0  0  0  0  0  0
   72.9720   43.4000   -3.5660 C   0  0  0  0  0  0  0  0  0  0  0  0
   74.0870   44.2050   -3.3290 C   0  0  0  0  0  0  0  0  0  0  0  0
   74.2600   45.3860   -4.0560 C   0  0  0  0  0  0  0  0  0  0  0  0
   73.3190   45.7610   -5.0170 C   0  0  0  0  0  0  0  0  0  0  0  0
   72.2070   44.9550   -5.2500 C   0  0  0  0  0  0  0  0  0  0  0  0
   71.3250   45.3820   -6.2050 O   0  0  0  0  0  0  0  0  0  0  0  0
   72.0340   43.7750   -4.5230 C   0  0  0  0  0  0  0  0  0  0  0  0
   69.5180   40.5000   -4.9640 H   0  0  0  0  0  0  0  0  0  0  0  0
   73.4397   39.2527   -3.1404 H   0  0  0  0  0  0  0  0  0  0  0  0
   73.4519   37.2900   -1.6182 H   0  0  0  0  0  0  0  0  0  0  0  0
   72.7475   36.2162    0.2869 H   0  0  0  0  0  0  0  0  0  0  0  0
   71.8235   37.1570    1.5386 H   0  0  0  0  0  0  0  0  0  0  0  0
   69.4856   40.0249    0.9778 H   0  0  0  0  0  0  0  0  0  0  0  0
   70.1505   40.9548   -0.9248 H   0  0  0  0  0  0  0  0  0  0  0  0
   74.8283   43.9106   -2.5715 H   0  0  0  0  0  0  0  0  0  0  0  0
   75.1388   46.0211   -3.8708 H   0  0  0  0  0  0  0  0  0  0  0  0
   73.4555   46.6908   -5.5888 H   0  0  0  0  0  0  0  0  0  0  0  0
   70.6630   44.8020   -6.5250 H   0  0  0  0  0  0  0  0  0  0  0  0
  1  2  2  0
  2  3  1  0
  3  4  1  0
  3  5  2  0
  5  6  1  0
  6  7  2  0
  7  8  1  0
  8  9  2  0
  9 10  1  0
 10 11  1  0
  9 12  1  0
 12 13  1  0
 13 14  1  0
 13 15  1  0
 12 16  2  0
  5 17  1  0
 17 18  1  0
 18 19  2  0
 19 20  1  0
 20 21  2  0
 21 22  1  0
 22 23  1  0
 22 24  2  0
 24  2  1  0
 16  6  1  0
 24 18  1  0
  4 25  1  0
  7 26  1  0
  8 27  1  0
 10 28  1  0
 10 29  1  0
 13 30  1  0
 16 31  1  0
 19 32  1  0
 20 33  1  0
 21 34  1  0
 23 35  1  0
M  END
>  <meeko>  (2) 
{"is_sidechain": [false], "free_energy": -7.966, "intermolecular_energy": -9.686, "internal_energy": -0.281}

$$$$
cand_019_out
     RDKit          3D

 35 37  0  0  0  0  0  0  0  0999 V2000
   67.6960   41.4180   -3.6520 O   0  0  0  0  0  0  0  0  0  0  0  0
   68.7140   41.3950   -2.9630 C   0  0  0  0  0  0  0  0  0  0  0  0
   69.8820   42.2330   -3.3200 C   0  0  0  0  0  0  0  0  0  0  0  0
   69.7720   43.0140   -4.4560 O   0  0  0  0  0  0  0  0  0  0  0  0
   70.9760   42.1760   -2.5390 C   0  0  0  0  0  0  0  0  0  0  0  0
   72.2030   42.9580   -2.8050 C   0  0  0  0  0  0  0  0  0  0  0  0
   72.1550   44.2340   -3.3730 C   0  0  0  0  0  0  0  0  0  0  0  0
   73.3260   44.9640   -3.5940 C   0  0  0  0  0  0  0  0  0  0  0  0
   74.5780   44.4350   -3.2510 C   0  0  0  0  0  0  0  0  0  0  0  0
   75.8220   45.2520   -3.4960 C   0  0  0  0  0  0  0  0  0  0  0  0
   76.0800   46.1230   -2.4810 F   0  0  0  0  0  0  0  0  0  0  0  0
   74.6450   43.1590   -2.6510 C   0  0  0  0  0  0  0  0  0  0  0  0
   75.9670   42.5510   -2.2400 C   0  0  0  0  0  0  0  0  0  0  0  0
   76.3110   42.8720   -0.9610 F   0  0  0  0  0  0  0  0  0  0  0  0
   75.9650   41.1860   -2.2770 F   0  0  0  0  0  0  0  0  0  0  0  0
   73.4540   42.4360   -2.4410 C   0  0  0  0  0  0  0  0  0  0  0  0
   71.0850   41.3660   -1.4140 O   0  0  0  0  0  0  0  0  0  0  0  0
   70.0170   40.5840   -1.0550 C   0  0  0  0  0  0  0  0  0  0  0  0
   70.1660   39.7940    0.0860 C   0  0  0  0  0  0  0  0  0  0  0  0
   69.1170   38.9730    0.5070 C   0  0  0  0  0  0  0  0  0  0  0  0
   67.9210   38.9420   -0.2130 C   0  0  0  0  0  0  0  0  0  0  0  0
   67.7750   39.7310   -1.3510 C   0  0  0  0  0  0  0  0  0  0  0  0
   66.5780   39.6500   -2.0080 O   0  0  0  0  0  0  0  0  0  0  0  0
   68.8250   40.5510   -1.7710 C   0  0  0  0  0  0  0  0  0  0  0  0
   69.7710   43.9480   -4.3840 H   0  0  0  0  0  0  0  0  0  0  0  0
   71.1833   44.6692   -3.6496 H   0  0  0  0  0  0  0  0  0  0  0  0
   73.2645   45.9664   -4.0428 H   0  0  0  0  0  0  0  0  0  0  0  0
   76.6779   44.5691   -3.6015 H   0  0  0  0  0  0  0  0  0  0  0  0
   75.6611   45.8414   -4.4107 H   0  0  0  0  0  0  0  0  0  0  0  0
   76.6785   42.9642   -2.9701 H   0  0  0  0  0  0  0  0  0  0  0  0
   73.5059   41.4383   -1.9806 H   0  0  0  0  0  0  0  0  0  0  0  0
   71.1083   39.8178    0.6531 H   0  0  0  0  0  0  0  0  0  0  0  0
   69.2333   38.3505    1.4064 H   0  0  0  0  0  0  0  0  0  0  0  0
   67.0953   38.2952    0.1184 H   0  0  0  0  0  0  0  0  0  0  0  0
   66.5550   39.4110   -2.9140 H   0  0  0  0  0  0  0  0  0  0  0  0
  1  2  2  0
  2  3  1  0
  3  4  1  0
  3  5  2  0
  5  6  1  0
  6  7  2  0
  7  8  1  0
  8  9  2  0
  9 10  1  0
 10 11  1  0
  9 12  1  0
 12 13  1  0
 13 14  1  0
 13 15  1  0
 12 16  2  0
  5 17  1  0
 17 18  1  0
 18 19  2  0
 19 20  1  0
 20 21  2  0
 21 22  1  0
 22 23  1  0
 22 24  2  0
 24  2  1  0
 16  6  1  0
 24 18  1  0
  4 25  1  0
  7 26  1  0
  8 27  1  0
 10 28  1  0
 10 29  1  0
 13 30  1  0
 16 31  1  0
 19 32  1  0
 20 33  1  0
 21 34  1  0
 23 35  1  0
M  END
>  <meeko>  (3) 
{"is_sidechain": [false], "free_energy": -7.953, "intermolecular_energy": -9.748, "internal_energy": -0.203}

$$$$
cand_019_out
     RDKit          3D

 35 37  0  0  0  0  0  0  0  0999 V2000
   72.2000   37.5800    0.1930 O   0  0  0  0  0  0  0  0  0  0  0  0
   71.8230   38.5230   -0.4990 C   0  0  0  0  0  0  0  0  0  0  0  0
   72.7930   39.2990   -1.3060 C   0  0  0  0  0  0  0  0  0  0  0  0
   74.1210   38.9210   -1.2270 O   0  0  0  0  0  0  0  0  0  0  0  0
   72.3370   40.3240   -2.0480 C   0  0  0  0  0  0  0  0  0  0  0  0
   73.2140   41.1750   -2.8810 C   0  0  0  0  0  0  0  0  0  0  0  0
   72.8460   41.5720   -4.1700 C   0  0  0  0  0  0  0  0  0  0  0  0
   73.6810   42.3950   -4.9310 C   0  0  0  0  0  0  0  0  0  0  0  0
   74.9070   42.8440   -4.4210 C   0  0  0  0  0  0  0  0  0  0  0  0
   75.7800   43.7370   -5.2650 C   0  0  0  0  0  0  0  0  0  0  0  0
   75.5990   45.0580   -4.9840 F   0  0  0  0  0  0  0  0  0  0  0  0
   75.2830   42.4750   -3.1110 C   0  0  0  0  0  0  0  0  0  0  0  0
   76.5840   42.9510   -2.5030 C   0  0  0  0  0  0  0  0  0  0  0  0
   76.5320   44.2580   -2.1220 F   0  0  0  0  0  0  0  0  0  0  0  0
   76.9330   42.2620   -1.3770 F   0  0  0  0  0  0  0  0  0  0  0  0
   74.4320   41.6410   -2.3620 C   0  0  0  0  0  0  0  0  0  0  0  0
   71.0030   40.7120   -2.0970 O   0  0  0  0  0  0  0  0  0  0  0  0
   70.0800   40.0090   -1.3660 C   0  0  0  0  0  0  0  0  0  0  0  0
   68.7510   40.4270   -1.4530 C   0  0  0  0  0  0  0  0  0  0  0  0
   67.7610   39.7550   -0.7320 C   0  0  0  0  0  0  0  0  0  0  0  0
   68.1000   38.6660    0.0750 C   0  0  0  0  0  0  0  0  0  0  0  0
   69.4270   38.2520    0.1600 C   0  0  0  0  0  0  0  0  0  0  0  0
   69.6880   37.1810    0.9690 O   0  0  0  0  0  0  0  0  0  0  0  0
   70.4160   38.9250   -0.5610 C   0  0  0  0  0  0  0  0  0  0  0  0
   74.4190   38.4040   -0.5040 H   0  0  0  0  0  0  0  0  0  0  0  0
   71.8878   41.2326   -4.5903 H   0  0  0  0  0  0  0  0  0  0  0  0
   73.3720   42.6943   -5.9434 H   0  0  0  0  0  0  0  0  0  0  0  0
   76.8330   43.4779   -5.0805 H   0  0  0  0  0  0  0  0  0  0  0  0
   75.5035   43.5776   -6.3177 H   0  0  0  0  0  0  0  0  0  0  0  0
   77.3185   42.7908   -3.3060 H   0  0  0  0  0  0  0  0  0  0  0  0
   74.7288   41.3470   -1.3444 H   0  0  0  0  0  0  0  0  0  0  0  0
   68.4837   41.2842   -2.0883 H   0  0  0  0  0  0  0  0  0  0  0  0
   66.7134   40.0836   -0.7997 H   0  0  0  0  0  0  0  0  0  0  0  0
   67.3202   38.1366    0.6422 H   0  0  0  0  0  0  0  0  0  0  0  0
   70.3930   36.5990    0.7640 H   0  0  0  0  0  0  0  0  0  0  0  0
  1  2  2  0
  2  3  1  0
  3  4  1  0
  3  5  2  0
  5  6  1  0
  6  7  2  0
  7  8  1  0
  8  9  2  0
  9 10  1  0
 10 11  1  0
  9 12  1  0
 12 13  1  0
 13 14  1  0
 13 15  1  0
 12 16  2  0
  5 17  1  0
 17 18  1  0
 18 19  2  0
 19 20  1  0
 20 21  2  0
 21 22  1  0
 22 23  1  0
 22 24  2  0
 24  2  1  0
 16  6  1  0
 24 18  1  0
  4 25  1  0
  7 26  1  0
  8 27  1  0
 10 28  1  0
 10 29  1  0
 13 30  1  0
 16 31  1  0
 19 32  1  0
 20 33  1  0
 21 34  1  0
 23 35  1  0
M  END
>  <meeko>  (4) 
{"is_sidechain": [false], "free_energy": -7.91, "intermolecular_energy": -9.611, "internal_energy": -0.287}

$$$$
cand_019_out
     RDKit          3D

 35 37  0  0  0  0  0  0  0  0999 V2000
   68.5730   43.1120   -5.2290 O   0  0  0  0  0  0  0  0  0  0  0  0
   68.2850   42.9050   -4.0530 C   0  0  0  0  0  0  0  0  0  0  0  0
   68.9060   41.7820   -3.3130 C   0  0  0  0  0  0  0  0  0  0  0  0
   69.7970   40.9870   -4.0100 O   0  0  0  0  0  0  0  0  0  0  0  0
   68.5610   41.5900   -2.0270 C   0  0  0  0  0  0  0  0  0  0  0  0
   69.1070   40.4950   -1.1950 C   0  0  0  0  0  0  0  0  0  0  0  0
   68.2830   39.5090   -0.6430 C   0  0  0  0  0  0  0  0  0  0  0  0
   68.8240   38.4710    0.1200 C   0  0  0  0  0  0  0  0  0  0  0  0
   70.2050   38.3900    0.3490 C   0  0  0  0  0  0  0  0  0  0  0  0
   70.7560   37.2530    1.1710 C   0  0  0  0  0  0  0  0  0  0  0  0
   70.7220   36.0650    0.5030 F   0  0  0  0  0  0  0  0  0  0  0  0
   71.0540   39.3620   -0.2230 C   0  0  0  0  0  0  0  0  0  0  0  0
   72.5530   39.3090   -0.0260 C   0  0  0  0  0  0  0  0  0  0  0  0
   73.2240   40.0600   -0.9450 F   0  0  0  0  0  0  0  0  0  0  0  0
   72.9520   39.7880    1.1880 F   0  0  0  0  0  0  0  0  0  0  0  0
   70.4910   40.4040   -0.9840 C   0  0  0  0  0  0  0  0  0  0  0  0
   67.6430   42.3800   -1.3440 O   0  0  0  0  0  0  0  0  0  0  0  0
   67.0550   43.4320   -2.0010 C   0  0  0  0  0  0  0  0  0  0  0  0
   66.1470   44.2040   -1.2750 C   0  0  0  0  0  0  0  0  0  0  0  0
   65.5130   45.2890   -1.8840 C   0  0  0  0  0  0  0  0  0  0  0  0
   65.7860   45.6010   -3.2180 C   0  0  0  0  0  0  0  0  0  0  0  0
   66.6930   44.8290   -3.9390 C   0  0  0  0  0  0  0  0  0  0  0  0
   66.9130   45.1900   -5.2400 O   0  0  0  0  0  0  0  0  0  0  0  0
   67.3270   43.7440   -3.3290 C   0  0  0  0  0  0  0  0  0  0  0  0
   69.7300   40.0530   -3.9600 H   0  0  0  0  0  0  0  0  0  0  0  0
   67.1968   39.5511   -0.8114 H   0  0  0  0  0  0  0  0  0  0  0  0
   68.1575   37.7070    0.5468 H   0  0  0  0  0  0  0  0  0  0  0  0
   71.7995   37.4806    1.4342 H   0  0  0  0  0  0  0  0  0  0  0  0
   70.1271   37.1518    2.0678 H   0  0  0  0  0  0  0  0  0  0  0  0
   72.7887   38.2390   -0.1234 H   0  0  0  0  0  0  0  0  0  0  0  0
   71.1522   41.1652   -1.4238 H   0  0  0  0  0  0  0  0  0  0  0  0
   65.9311   43.9582   -0.2248 H   0  0  0  0  0  0  0  0  0  0  0  0
   64.7977   45.8988   -1.3126 H   0  0  0  0  0  0  0  0  0  0  0  0
   65.2854   46.4549   -3.6978 H   0  0  0  0  0  0  0  0  0  0  0  0
   67.3970   45.9680   -5.4350 H   0  0  0  0  0  0  0  0  0  0  0  0
  1  2  2  0
  2  3  1  0
  3  4  1  0
  3  5  2  0
  5  6  1  0
  6  7  2  0
  7  8  1  0
  8  9  2  0
  9 10  1  0
 10 11  1  0
  9 12  1  0
 12 13  1  0
 13 14  1  0
 13 15  1  0
 12 16  2  0
  5 17  1  0
 17 18  1  0
 18 19  2  0
 19 20  1  0
 20 21  2  0
 21 22  1  0
 22 23  1  0
 22 24  2  0
 24  2  1  0
 16  6  1  0
 24 18  1  0
  4 25  1  0
  7 26  1  0
  8 27  1  0
 10 28  1  0
 10 29  1  0
 13 30  1  0
 16 31  1  0
 19 32  1  0
 20 33  1  0
 21 34  1  0
 23 35  1  0
M  END
>  <meeko>  (5) 
{"is_sidechain": [false], "free_energy": -7.902, "intermolecular_energy": -9.487, "internal_energy": -0.401}

$$$$
cand_019_out
     RDKit          3D

 35 37  0  0  0  0  0  0  0  0999 V2000
   72.9800   42.3030   -5.5960 O   0  0  0  0  0  0  0  0  0  0  0  0
   73.3650   42.0120   -4.4660 C   0  0  0  0  0  0  0  0  0  0  0  0
   72.6810   40.9540   -3.6870 C   0  0  0  0  0  0  0  0  0  0  0  0
   71.5970   40.3360   -4.2840 O   0  0  0  0  0  0  0  0  0  0  0  0
   73.1350   40.6680   -2.4540 C   0  0  0  0  0  0  0  0  0  0  0  0
   72.5230   39.6410   -1.5820 C   0  0  0  0  0  0  0  0  0  0  0  0
   73.2810   38.6140   -1.0110 C   0  0  0  0  0  0  0  0  0  0  0  0
   72.6850   37.6680   -0.1720 C   0  0  0  0  0  0  0  0  0  0  0  0
   71.3150   37.7270    0.1200 C   0  0  0  0  0  0  0  0  0  0  0  0
   70.7060   36.6950    1.0350 C   0  0  0  0  0  0  0  0  0  0  0  0
   70.6140   37.1320    2.3220 F   0  0  0  0  0  0  0  0  0  0  0  0
   70.5400   38.7730   -0.4260 C   0  0  0  0  0  0  0  0  0  0  0  0
   69.0630   38.8970   -0.1240 C   0  0  0  0  0  0  0  0  0  0  0  0
   68.8270   39.4110    1.1150 F   0  0  0  0  0  0  0  0  0  0  0  0
   68.4080   39.7290   -0.9870 F   0  0  0  0  0  0  0  0  0  0  0  0
   71.1560   39.7130   -1.2730 C   0  0  0  0  0  0  0  0  0  0  0  0
   74.2090   41.3150   -1.8530 O   0  0  0  0  0  0  0  0  0  0  0  0
   74.8670   42.2960   -2.5520 C   0  0  0  0  0  0  0  0  0  0  0  0
   75.9450   42.9120   -1.9150 C   0  0  0  0  0  0  0  0  0  0  0  0
   76.6580   43.9190   -2.5710 C   0  0  0  0  0  0  0  0  0  0  0  0
   76.2930   44.3090   -3.8610 C   0  0  0  0  0  0  0  0  0  0  0  0
   75.2160   43.6920   -4.4930 C   0  0  0  0  0  0  0  0  0  0  0  0
   74.9130   44.1230   -5.7560 O   0  0  0  0  0  0  0  0  0  0  0  0
   74.5040   42.6850   -3.8370 C   0  0  0  0  0  0  0  0  0  0  0  0
   71.6230   40.1230   -5.1960 H   0  0  0  0  0  0  0  0  0  0  0  0
   74.3582   38.5498   -1.2244 H   0  0  0  0  0  0  0  0  0  0  0  0
   73.2990   36.8667    0.2649 H   0  0  0  0  0  0  0  0  0  0  0  0
   69.6967   36.4521    0.6714 H   0  0  0  0  0  0  0  0  0  0  0  0
   71.3608   35.8112    1.0268 H   0  0  0  0  0  0  0  0  0  0  0  0
   68.6936   37.8647   -0.2134 H   0  0  0  0  0  0  0  0  0  0  0  0
   70.5509   40.5244   -1.7036 H   0  0  0  0  0  0  0  0  0  0  0  0
   76.2329   42.6055   -0.8986 H   0  0  0  0  0  0  0  0  0  0  0  0
   77.5082   44.4052   -2.0702 H   0  0  0  0  0  0  0  0  0  0  0  0
   76.8547   45.1017   -4.3770 H   0  0  0  0  0  0  0  0  0  0  0  0
   74.1420   43.8100   -6.1850 H   0  0  0  0  0  0  0  0  0  0  0  0
  1  2  2  0
  2  3  1  0
  3  4  1  0
  3  5  2  0
  5  6  1  0
  6  7  2  0
  7  8  1  0
  8  9  2  0
  9 10  1  0
 10 11  1  0
  9 12  1  0
 12 13  1  0
 13 14  1  0
 13 15  1  0
 12 16  2  0
  5 17  1  0
 17 18  1  0
 18 19  2  0
 19 20  1  0
 20 21  2  0
 21 22  1  0
 22 23  1  0
 22 24  2  0
 24  2  1  0
 16  6  1  0
 24 18  1  0
  4 25  1  0
  7 26  1  0
  8 27  1  0
 10 28  1  0
 10 29  1  0
 13 30  1  0
 16 31  1  0
 19 32  1  0
 20 33  1  0
 21 34  1  0
 23 35  1  0
M  END
>  <meeko>  (6) 
{"is_sidechain": [false], "free_energy": -7.9, "intermolecular_energy": -9.464, "internal_energy": -0.422}

$$$$
cand_019_out
     RDKit          3D

 35 37  0  0  0  0  0  0  0  0999 V2000
   71.9360   43.6390   -5.8740 O   0  0  0  0  0  0  0  0  0  0  0  0
   71.1740   43.0020   -5.1490 C   0  0  0  0  0  0  0  0  0  0  0  0
   71.6870   41.9000   -4.3030 C   0  0  0  0  0  0  0  0  0  0  0  0
   73.0390   41.6220   -4.3850 O   0  0  0  0  0  0  0  0  0  0  0  0
   70.8180   41.2290   -3.5250 C   0  0  0  0  0  0  0  0  0  0  0  0
   71.2140   40.1040   -2.6510 C   0  0  0  0  0  0  0  0  0  0  0  0
   72.3100   39.2890   -2.9500 C   0  0  0  0  0  0  0  0  0  0  0  0
   72.6810   38.2460   -2.0970 C   0  0  0  0  0  0  0  0  0  0  0  0
   71.9640   37.9910   -0.9190 C   0  0  0  0  0  0  0  0  0  0  0  0
   72.3950   36.8620   -0.0170 C   0  0  0  0  0  0  0  0  0  0  0  0
   73.3880   37.2320    0.8390 F   0  0  0  0  0  0  0  0  0  0  0  0
   70.8710   38.8200   -0.5870 C   0  0  0  0  0  0  0  0  0  0  0  0
   70.0780   38.6050    0.6840 C   0  0  0  0  0  0  0  0  0  0  0  0
   70.7770   38.9600    1.7980 F   0  0  0  0  0  0  0  0  0  0  0  0
   68.9300   39.3430    0.7300 F   0  0  0  0  0  0  0  0  0  0  0  0
   70.5100   39.8630   -1.4610 C   0  0  0  0  0  0  0  0  0  0  0  0
   69.4560   41.5000   -3.4720 O   0  0  0  0  0  0  0  0  0  0  0  0
   68.9520   42.5190   -4.2390 C   0  0  0  0  0  0  0  0  0  0  0  0
   67.5810   42.7630   -4.1480 C   0  0  0  0  0  0  0  0  0  0  0  0
   67.0030   43.7870   -4.9030 C   0  0  0  0  0  0  0  0  0  0  0  0
   67.7960   44.5650   -5.7500 C   0  0  0  0  0  0  0  0  0  0  0  0
   69.1640   44.3180   -5.8390 C   0  0  0  0  0  0  0  0  0  0  0  0
   69.8800   45.1180   -6.6870 O   0  0  0  0  0  0  0  0  0  0  0  0
   69.7400   43.2950   -5.0830 C   0  0  0  0  0  0  0  0  0  0  0  0
   73.4540   41.5550   -5.2220 H   0  0  0  0  0  0  0  0  0  0  0  0
   72.8876   39.4711   -3.8683 H   0  0  0  0  0  0  0  0  0  0  0  0
   73.5464   37.6170   -2.3528 H   0  0  0  0  0  0  0  0  0  0  0  0
   71.5273   36.5288    0.5713 H   0  0  0  0  0  0  0  0  0  0  0  0
   72.7844   36.0538   -0.6535 H   0  0  0  0  0  0  0  0  0  0  0  0
   69.8538   37.5282    0.6707 H   0  0  0  0  0  0  0  0  0  0  0  0
   69.6545   40.5053   -1.2047 H   0  0  0  0  0  0  0  0  0  0  0  0
   66.9558   42.1497   -3.4824 H   0  0  0  0  0  0  0  0  0  0  0  0
   65.9226   43.9806   -4.8303 H   0  0  0  0  0  0  0  0  0  0  0  0
   67.3413   45.3706   -6.3452 H   0  0  0  0  0  0  0  0  0  0  0  0
   69.7790   45.0270   -7.6140 H   0  0  0  0  0  0  0  0  0  0  0  0
  1  2  2  0
  2  3  1  0
  3  4  1  0
  3  5  2  0
  5  6  1  0
  6  7  2  0
  7  8  1  0
  8  9  2  0
  9 10  1  0
 10 11  1  0
  9 12  1  0
 12 13  1  0
 13 14  1  0
 13 15  1  0
 12 16  2  0
  5 17  1  0
 17 18  1  0
 18 19  2  0
 19 20  1  0
 20 21  2  0
 21 22  1  0
 22 23  1  0
 22 24  2  0
 24  2  1  0
 16  6  1  0
 24 18  1  0
  4 25  1  0
  7 26  1  0
  8 27  1  0
 10 28  1  0
 10 29  1  0
 13 30  1  0
 16 31  1  0
 19 32  1  0
 20 33  1  0
 21 34  1  0
 23 35  1  0
M  END
>  <meeko>  (7) 
{"is_sidechain": [false], "free_energy": -7.844, "intermolecular_energy": -9.698, "internal_energy": -0.118}

$$$$
cand_019_out
     RDKit          3D

 35 37  0  0  0  0  0  0  0  0999 V2000
   68.7170   40.3280   -1.1310 O   0  0  0  0  0  0  0  0  0  0  0  0
   69.9070   40.0430   -1.2500 C   0  0  0  0  0  0  0  0  0  0  0  0
   70.7980   40.8730   -2.0930 C   0  0  0  0  0  0  0  0  0  0  0  0
   70.2260   41.9540   -2.7390 O   0  0  0  0  0  0  0  0  0  0  0  0
   72.0930   40.5240   -2.1960 C   0  0  0  0  0  0  0  0  0  0  0  0
   73.0710   41.2690   -3.0190 C   0  0  0  0  0  0  0  0  0  0  0  0
   72.8190   41.5820   -4.3580 C   0  0  0  0  0  0  0  0  0  0  0  0
   73.7480   42.3080   -5.1100 C   0  0  0  0  0  0  0  0  0  0  0  0
   74.9530   42.7420   -4.5400 C   0  0  0  0  0  0  0  0  0  0  0  0
   75.9290   43.5300   -5.3760 C   0  0  0  0  0  0  0  0  0  0  0  0
   75.8060   44.8740   -5.1910 F   0  0  0  0  0  0  0  0  0  0  0  0
   75.2120   42.4590   -3.1810 C   0  0  0  0  0  0  0  0  0  0  0  0
   76.4850   42.9240   -2.5100 C   0  0  0  0  0  0  0  0  0  0  0  0
   76.4350   44.2380   -2.1540 F   0  0  0  0  0  0  0  0  0  0  0  0
   76.7580   42.2500   -1.3540 F   0  0  0  0  0  0  0  0  0  0  0  0
   74.2670   41.7220   -2.4420 C   0  0  0  0  0  0  0  0  0  0  0  0
   72.6510   39.4180   -1.5650 O   0  0  0  0  0  0  0  0  0  0  0  0
   71.8530   38.6340   -0.7710 C   0  0  0  0  0  0  0  0  0  0  0  0
   72.4560   37.5410   -0.1480 C   0  0  0  0  0  0  0  0  0  0  0  0
   71.6990   36.7020    0.6720 C   0  0  0  0  0  0  0  0  0  0  0  0
   70.3400   36.9550    0.8690 C   0  0  0  0  0  0  0  0  0  0  0  0
   69.7400   38.0470    0.2450 C   0  0  0  0  0  0  0  0  0  0  0  0
   68.4060   38.2360    0.4810 O   0  0  0  0  0  0  0  0  0  0  0  0
   70.4980   38.8860   -0.5750 C   0  0  0  0  0  0  0  0  0  0  0  0
   70.4470   42.8260   -2.4770 H   0  0  0  0  0  0  0  0  0  0  0  0
   71.8791   41.2534   -4.8255 H   0  0  0  0  0  0  0  0  0  0  0  0
   73.5304   42.5416   -6.1626 H   0  0  0  0  0  0  0  0  0  0  0  0
   76.9512   43.2282   -5.1037 H   0  0  0  0  0  0  0  0  0  0  0  0
   75.7132   43.3163   -6.4332 H   0  0  0  0  0  0  0  0  0  0  0  0
   77.2598   42.7373   -3.2682 H   0  0  0  0  0  0  0  0  0  0  0  0
   74.4716   41.4955   -1.3852 H   0  0  0  0  0  0  0  0  0  0  0  0
   73.5265   37.3405   -0.3026 H   0  0  0  0  0  0  0  0  0  0  0  0
   72.1740   35.8402    1.1637 H   0  0  0  0  0  0  0  0  0  0  0  0
   69.7443   36.2937    1.5154 H   0  0  0  0  0  0  0  0  0  0  0  0
   67.7760   37.6570    0.1000 H   0  0  0  0  0  0  0  0  0  0  0  0
  1  2  2  0
  2  3  1  0
  3  4  1  0
  3  5  2  0
  5  6  1  0
  6  7  2  0
  7  8  1  0
  8  9  2  0
  9 10  1  0
 10 11  1  0
  9 12  1  0
 12 13  1  0
 13 14  1  0
 13 15  1  0
 12 16  2  0
  5 17  1  0
 17 18  1  0
 18 19  2  0
 19 20  1  0
 20 21  2  0
 21 22  1  0
 22 23  1  0
 22 24  2  0
 24  2  1  0
 16  6  1  0
 24 18  1  0
  4 25  1  0
  7 26  1  0
  8 27  1  0
 10 28  1  0
 10 29  1  0
 13 30  1  0
 16 31  1  0
 19 32  1  0
 20 33  1  0
 21 34  1  0
 23 35  1  0
M  END
>  <meeko>  (8) 
{"is_sidechain": [false], "free_energy": -7.791, "intermolecular_energy": -9.334, "internal_energy": -0.417}

$$$$
cand_019_out
     RDKit          3D

 35 37  0  0  0  0  0  0  0  0999 V2000
   73.7190   38.4850   -0.5700 O   0  0  0  0  0  0  0  0  0  0  0  0
   72.9010   39.2800   -1.0280 C   0  0  0  0  0  0  0  0  0  0  0  0
   73.3390   40.3810   -1.9170 C   0  0  0  0  0  0  0  0  0  0  0  0
   74.6930   40.4730   -2.1840 O   0  0  0  0  0  0  0  0  0  0  0  0
   72.4100   41.2290   -2.3950 C   0  0  0  0  0  0  0  0  0  0  0  0
   72.7330   42.3710   -3.2790 C   0  0  0  0  0  0  0  0  0  0  0  0
   72.5240   43.6940   -2.8790 C   0  0  0  0  0  0  0  0  0  0  0  0
   72.8580   44.7580   -3.7220 C   0  0  0  0  0  0  0  0  0  0  0  0
   73.4140   44.5250   -4.9880 C   0  0  0  0  0  0  0  0  0  0  0  0
   73.7700   45.6950   -5.8700 C   0  0  0  0  0  0  0  0  0  0  0  0
   72.7220   46.1030   -6.6400 F   0  0  0  0  0  0  0  0  0  0  0  0
   73.6570   43.1960   -5.3980 C   0  0  0  0  0  0  0  0  0  0  0  0
   74.2760   42.8890   -6.7440 C   0  0  0  0  0  0  0  0  0  0  0  0
   75.2810   41.9730   -6.6570 F   0  0  0  0  0  0  0  0  0  0  0  0
   73.3860   42.3600   -7.6350 F   0  0  0  0  0  0  0  0  0  0  0  0
   73.3090   42.1370   -4.5370 C   0  0  0  0  0  0  0  0  0  0  0  0
   71.0560   41.1440   -2.0970 O   0  0  0  0  0  0  0  0  0  0  0  0
   70.6180   40.1310   -1.2820 C   0  0  0  0  0  0  0  0  0  0  0  0
   69.2490   40.0770   -1.0170 C   0  0  0  0  0  0  0  0  0  0  0  0
   68.7380   39.0710   -0.1940 C   0  0  0  0  0  0  0  0  0  0  0  0
   69.5960   38.1210    0.3650 C   0  0  0  0  0  0  0  0  0  0  0  0
   70.9620   38.1780    0.0990 C   0  0  0  0  0  0  0  0  0  0  0  0
   71.7430   37.2160    0.6790 O   0  0  0  0  0  0  0  0  0  0  0  0
   71.4720   39.1840   -0.7240 C   0  0  0  0  0  0  0  0  0  0  0  0
   75.2990   39.9260   -1.7240 H   0  0  0  0  0  0  0  0  0  0  0  0
   72.0915   43.9004   -1.8889 H   0  0  0  0  0  0  0  0  0  0  0  0
   72.6824   45.7912   -3.3879 H   0  0  0  0  0  0  0  0  0  0  0  0
   74.0880   46.5336   -5.2331 H   0  0  0  0  0  0  0  0  0  0  0  0
   74.5767   45.3730   -6.5449 H   0  0  0  0  0  0  0  0  0  0  0  0
   74.6448   43.8667   -7.0877 H   0  0  0  0  0  0  0  0  0  0  0  0
   73.4932   41.1013   -4.8586 H   0  0  0  0  0  0  0  0  0  0  0  0
   68.5732   40.8258   -1.4558 H   0  0  0  0  0  0  0  0  0  0  0  0
   67.6588   39.0267    0.0142 H   0  0  0  0  0  0  0  0  0  0  0  0
   69.1936   37.3293    1.0141 H   0  0  0  0  0  0  0  0  0  0  0  0
   72.3180   36.6980    0.1510 H   0  0  0  0  0  0  0  0  0  0  0  0
  1  2  2  0
  2  3  1  0
  3  4  1  0
  3  5  2  0
  5  6  1  0
  6  7  2  0
  7  8  1  0
  8  9  2  0
  9 10  1  0
 10 11  1  0
  9 12  1  0
 12 13  1  0
 13 14  1  0
 13 15  1  0
 12 16  2  0
  5 17  1  0
 17 18  1  0
 18 19  2  0
 19 20  1  0
 20 21  2  0
 21 22  1  0
 22 23  1  0
 22 24  2  0
 24  2  1  0
 16  6  1  0
 24 18  1  0
  4 25  1  0
  7 26  1  0
  8 27  1  0
 10 28  1  0
 10 29  1  0
 13 30  1  0
 16 31  1  0
 19 32  1  0
 20 33  1  0
 21 34  1  0
 23 35  1  0
M  END
>  <meeko>  (9) 
{"is_sidechain": [false], "free_energy": -7.722, "intermolecular_energy": -9.222, "internal_energy": -0.445}

$$$$
