cand_011_out
     RDKit          3D

 35 37  0  0  0  0  0  0  0  0999 V2000
   70.5580   37.0490    1.4740 C   0  0  0  0  0  0  0  0  0  0  0  0
   70.2860   38.1050    0.4360 C   0  0  0  0  0  0  0  0  0  0  0  0
   69.0440   38.7560    0.4310 C   0  0  0  0  0  0  0  0  0  0  0  0
   68.7580   39.7430   -0.5140 C   0  0  0  0  0  0  0  0  0  0  0  0
   69.7020   40.1060   -1.4810 C   0  0  0  0  0  0  0  0  0  0  0  0
   69.3830   41.1680   -2.4590 C   0  0  0  0  0  0  0  0  0  0  0  0
   70.4210   42.0780   -2.6270 O   0  0  0  0  0  0  0  0  0  0  0  0
   70.2550   43.1160   -3.5080 C   0  0  0  0  0  0  0  0  0  0  0  0
   71.3260   43.9980   -3.6570 C   0  0  0  0  0  0  0  0  0  0  0  0
   71.2230   45.0770   -4.5380 C   0  0  0  0  0  0  0  0  0  0  0  0
   70.0490   45.2750   -5.2680 C   0  0  0  0  0  0  0  0  0  0  0  0
   68.9820   44.3930   -5.1180 C   0  0  0  0  0  0  0  0  0  0  0  0
   67.8620   44.6460   -5.8620 O   0  0  0  0  0  0  0  0  0  0  0  0
   69.0850   43.3130   -4.2370 C   0  0  0  0  0  0  0  0  0  0  0  0
   67.9870   42.3640   -4.0500 C   0  0  0  0  0  0  0  0  0  0  0  0
   66.9200   42.4740   -4.6500 O   0  0  0  0  0  0  0  0  0  0  0  0
   68.2020   41.2480   -3.0990 C   0  0  0  0  0  0  0  0  0  0  0  0
   67.1560   40.3630   -2.9180 O   0  0  0  0  0  0  0  0  0  0  0  0
   70.9500   39.4670   -1.4660 C   0  0  0  0  0  0  0  0  0  0  0  0
   71.2600   38.4680   -0.5200 C   0  0  0  0  0  0  0  0  0  0  0  0
   72.6210   37.8080   -0.5580 C   0  0  0  0  0  0  0  0  0  0  0  0
   73.3170   38.1100   -1.6900 F   0  0  0  0  0  0  0  0  0  0  0  0
   73.4330   38.1640    0.4780 F   0  0  0  0  0  0  0  0  0  0  0  0
   72.5500   36.4480   -0.5140 F   0  0  0  0  0  0  0  0  0  0  0  0
   70.4459   37.4843    2.4780 H   0  0  0  0  0  0  0  0  0  0  0  0
   69.8437   36.2216    1.3512 H   0  0  0  0  0  0  0  0  0  0  0  0
   71.5832   36.6696    1.3512 H   0  0  0  0  0  0  0  0  0  0  0  0
   68.2859   38.4857    1.1808 H   0  0  0  0  0  0  0  0  0  0  0  0
   67.7777   40.2419   -0.4982 H   0  0  0  0  0  0  0  0  0  0  0  0
   72.2505   43.8437   -3.0812 H   0  0  0  0  0  0  0  0  0  0  0  0
   72.0676   45.7716   -4.6570 H   0  0  0  0  0  0  0  0  0  0  0  0
   69.9674   46.1261   -5.9601 H   0  0  0  0  0  0  0  0  0  0  0  0
   67.0130   44.5300   -5.4840 H   0  0  0  0  0  0  0  0  0  0  0  0
   66.7730   39.9330   -3.6570 H   0  0  0  0  0  0  0  0  0  0  0  0
   71.7069   39.7523   -2.2114 H   0  0  0  0  0  0  0  0  0  0  0  0
  1  2  1  0
  2  3  2  0
  3  4  1  0
  4  5  2  0
  5  6  1  0
  6  7  1  0
  7  8  1  0
  8  9  2  0
  9 10  1  0
 10 11  2  0
 11 12  1  0
 12 13  1  0
 12 14  2  0
 14 15  1  0
 15 16  2  0
 15 17  1  0
 17 18  1  0
  5 19  1  0
 19 20  2  0
 20 21  1  0
 21 22  1  0
 21 23  1  0
 21 24  1  0
 20  2  1  0
 17  6  2  0
 14  8  1  0
  1 25  1  0
  1 26  1  0
  1 27  1  0
  3 28  1  0
  4 29  1  0
  9 30  1  0
 10 31  1  0
 11 32  1  0
 13 33  1  0
 18 34  1  0
 19 35  1  0
M  END
>  <meeko>  (1) 
{"is_sidechain": [false], "free_energy": -8.698, "intermolecular_energy": -10.223, "internal_energy": -0.041}

$$$$
cand_011_out
     RDKit          3D

 35 37  0  0  0  0  0  0  0  0999 V2000
   72.3040   36.7180    0.2200 C   0  0  0  0  0  0  0  0  0  0  0  0
   72.1090   37.9750   -0.5850 C   0  0  0  0  0  0  0  0  0  0  0  0
   72.9650   38.2350   -1.6650 C   0  0  0  0  0  0  0  0  0  0  0  0
   72.8120   39.3880   -2.4370 C   0  0  0  0  0  0  0  0  0  0  0  0
   71.8030   40.3140   -2.1520 C   0  0  0  0  0  0  0  0  0  0  0  0
   71.6490   41.5180   -2.9950 C   0  0  0  0  0  0  0  0  0  0  0  0
   72.6640   42.4480   -2.8030 O   0  0  0  0  0  0  0  0  0  0  0  0
   72.6400   43.6140   -3.5240 C   0  0  0  0  0  0  0  0  0  0  0  0
   73.6850   44.5130   -3.3100 C   0  0  0  0  0  0  0  0  0  0  0  0
   73.7210   45.7200   -4.0130 C   0  0  0  0  0  0  0  0  0  0  0  0
   72.7110   46.0280   -4.9270 C   0  0  0  0  0  0  0  0  0  0  0  0
   71.6690   45.1290   -5.1390 C   0  0  0  0  0  0  0  0  0  0  0  0
   70.7130   45.4950   -6.0460 O   0  0  0  0  0  0  0  0  0  0  0  0
   71.6340   43.9210   -4.4360 C   0  0  0  0  0  0  0  0  0  0  0  0
   70.5570   42.9500   -4.6290 C   0  0  0  0  0  0  0  0  0  0  0  0
   69.6290   43.1510   -5.4090 O   0  0  0  0  0  0  0  0  0  0  0  0
   70.6180   41.6960   -3.8430 C   0  0  0  0  0  0  0  0  0  0  0  0
   69.5900   40.7890   -4.0200 O   0  0  0  0  0  0  0  0  0  0  0  0
   70.9360   40.0460   -1.0830 C   0  0  0  0  0  0  0  0  0  0  0  0
   71.0730   38.8870   -0.2910 C   0  0  0  0  0  0  0  0  0  0  0  0
   70.1120   38.6560    0.8550 C   0  0  0  0  0  0  0  0  0  0  0  0
   69.4330   37.4800    0.7400 F   0  0  0  0  0  0  0  0  0  0  0  0
   70.7150   38.6130    2.0770 F   0  0  0  0  0  0  0  0  0  0  0  0
   69.1630   39.6290    0.9520 F   0  0  0  0  0  0  0  0  0  0  0  0
   72.2665   36.9599    1.2924 H   0  0  0  0  0  0  0  0  0  0  0  0
   71.5065   36.0001   -0.0221 H   0  0  0  0  0  0  0  0  0  0  0  0
   73.2815   36.2755   -0.0221 H   0  0  0  0  0  0  0  0  0  0  0  0
   73.7667   37.5217   -1.9068 H   0  0  0  0  0  0  0  0  0  0  0  0
   73.4939   39.5708   -3.2806 H   0  0  0  0  0  0  0  0  0  0  0  0
   74.4797   44.2720   -2.5887 H   0  0  0  0  0  0  0  0  0  0  0  0
   74.5458   46.4284   -3.8463 H   0  0  0  0  0  0  0  0  0  0  0  0
   72.7386   46.9793   -5.4786 H   0  0  0  0  0  0  0  0  0  0  0  0
   69.9390   44.9760   -6.1450 H   0  0  0  0  0  0  0  0  0  0  0  0
   69.6610   39.9260   -3.6630 H   0  0  0  0  0  0  0  0  0  0  0  0
   70.1285   40.7578   -0.8563 H   0  0  0  0  0  0  0  0  0  0  0  0
  1  2  1  0
  2  3  2  0
  3  4  1  0
  4  5  2  0
  5  6  1  0
  6  7  1  0
  7  8  1  0
  8  9  2  0
  9 10  1  0
 10 11  2  0
 11 12  1  0
 12 13  1  0
 12 14  2  0
 14 15  1  0
 15 16  2  0
 15 17  1  0
 17 18  1  0
  5 19  1  0
 19 20  2  0
 20 21  1  0
 21 22  1  0
 21 23  1  0
 21 24  1  0
 20  2  1  0
 17  6  2  0
 14  8  1  0
  1 25  1  0
  1 26  1  0
  1 27  1  0
  3 28  1  0
  4 29  1  0
  9 30  1  0
 10 31  1  0
 11 32  1  0
 13 33  1  0
 18 34  1  0
 19 35  1  0
M  END
>  <meeko>  (2) 
{"is_sidechain": [false], "free_energy": -8.525, "intermolecular_energy": -9.687, "internal_energy": -0.374}

$$$$
cand_011_out
     RDKit          3D

 35 37  0  0  0  0  0  0  0  0999 V2000
   72.4420   36.7890    0.1130 C   0  0  0  0  0  0  0  0  0  0  0  0
   72.0160   37.9400   -0.7590 C   0  0  0  0  0  0  0  0  0  0  0  0
   72.7220   38.1990   -1.9430 C   0  0  0  0  0  0  0  0  0  0  0  0
   72.3540   39.2540   -2.7790 C   0  0  0  0  0  0  0  0  0  0  0  0
   71.2740   40.0830   -2.4560 C   0  0  0  0  0  0  0  0  0  0  0  0
   70.8910   41.1830   -3.3660 C   0  0  0  0  0  0  0  0  0  0  0  0
   69.5360   41.4860   -3.3080 O   0  0  0  0  0  0  0  0  0  0  0  0
   69.0470   42.4900   -4.1050 C   0  0  0  0  0  0  0  0  0  0  0  0
   67.6840   42.7720   -4.0050 C   0  0  0  0  0  0  0  0  0  0  0  0
   67.1210   43.7810   -4.7890 C   0  0  0  0  0  0  0  0  0  0  0  0
   67.9220   44.5080   -5.6740 C   0  0  0  0  0  0  0  0  0  0  0  0
   69.2810   44.2250   -5.7720 C   0  0  0  0  0  0  0  0  0  0  0  0
   70.0060   44.9730   -6.6590 O   0  0  0  0  0  0  0  0  0  0  0  0
   69.8440   43.2150   -4.9860 C   0  0  0  0  0  0  0  0  0  0  0  0
   71.2680   42.8850   -5.0590 C   0  0  0  0  0  0  0  0  0  0  0  0
   72.0360   43.4740   -5.8180 O   0  0  0  0  0  0  0  0  0  0  0  0
   71.7660   41.8040   -4.1780 C   0  0  0  0  0  0  0  0  0  0  0  0
   73.1100   41.4900   -4.2620 O   0  0  0  0  0  0  0  0  0  0  0  0
   70.5570   39.8140   -1.2810 C   0  0  0  0  0  0  0  0  0  0  0  0
   70.9120   38.7520   -0.4230 C   0  0  0  0  0  0  0  0  0  0  0  0
   70.1060   38.5170    0.8360 C   0  0  0  0  0  0  0  0  0  0  0  0
   69.6300   37.2420    0.9230 F   0  0  0  0  0  0  0  0  0  0  0  0
   70.8080   38.7260    1.9860 F   0  0  0  0  0  0  0  0  0  0  0  0
   69.0150   39.3300    0.9240 F   0  0  0  0  0  0  0  0  0  0  0  0
   72.3373   37.0720    1.1708 H   0  0  0  0  0  0  0  0  0  0  0  0
   71.8077   35.9153   -0.0973 H   0  0  0  0  0  0  0  0  0  0  0  0
   73.4923   36.5388   -0.0973 H   0  0  0  0  0  0  0  0  0  0  0  0
   73.5766   37.5625   -2.2160 H   0  0  0  0  0  0  0  0  0  0  0  0
   72.9204   39.4363   -3.7042 H   0  0  0  0  0  0  0  0  0  0  0  0
   67.0533   42.1996   -3.3088 H   0  0  0  0  0  0  0  0  0  0  0  0
   66.0467   44.0038   -4.7101 H   0  0  0  0  0  0  0  0  0  0  0  0
   67.4789   45.3027   -6.2921 H   0  0  0  0  0  0  0  0  0  0  0  0
   69.6870   45.8100   -6.9350 H   0  0  0  0  0  0  0  0  0  0  0  0
   73.7470   42.0480   -3.8610 H   0  0  0  0  0  0  0  0  0  0  0  0
   69.6958   40.4474   -1.0218 H   0  0  0  0  0  0  0  0  0  0  0  0
  1  2  1  0
  2  3  2  0
  3  4  1  0
  4  5  2  0
  5  6  1  0
  6  7  1  0
  7  8  1  0
  8  9  2  0
  9 10  1  0
 10 11  2  0
 11 12  1  0
 12 13  1  0
 12 14  2  0
 14 15  1  0
 15 16  2  0
 15 17  1  0
 17 18  1  0
  5 19  1  0
 19 20  2  0
 20 21  1  0
 21 22  1  0
 21 23  1  0
 21 24  1  0
 20  2  1  0
 17  6  2  0
 14  8  1  0
  1 25  1  0
  1 26  1  0
  1 27  1  0
  3 28  1  0
  4 29  1  0
  9 30  1  0
 10 31  1  0
 11 32  1  0
 13 33  1  0
 18 34  1  0
 19 35  1  0
M  END
>  <meeko>  (3) 
{"is_sidechain": [false], "free_energy": -8.372, "intermolecular_energy": -9.997, "internal_energy": 0.116}

$$$$
cand_011_out
     RDKit          3D

 35 37  0  0  0  0  0  0  0  0999 V2000
   70.7740   37.2090    1.2050 C   0  0  0  0  0  0  0  0  0  0  0  0
   70.2450   38.3340    0.3570 C   0  0  0  0  0  0  0  0  0  0  0  0
   68.8630   38.4320    0.1360 C   0  0  0  0  0  0  0  0  0  0  0  0
   68.3350   39.4650   -0.6410 C   0  0  0  0  0  0  0  0  0  0  0  0
   69.1700   40.4260   -1.2210 C   0  0  0  0  0  0  0  0  0  0  0  0
   68.5860   41.5210   -2.0240 C   0  0  0  0  0  0  0  0  0  0  0  0
   67.6610   42.2790   -1.3150 O   0  0  0  0  0  0  0  0  0  0  0  0
   67.0420   43.3290   -1.9450 C   0  0  0  0  0  0  0  0  0  0  0  0
   66.1310   44.0710   -1.1930 C   0  0  0  0  0  0  0  0  0  0  0  0
   65.4660   45.1530   -1.7740 C   0  0  0  0  0  0  0  0  0  0  0  0
   65.7110   45.4910   -3.1070 C   0  0  0  0  0  0  0  0  0  0  0  0
   66.6210   44.7490   -3.8550 C   0  0  0  0  0  0  0  0  0  0  0  0
   66.8110   45.1340   -5.1540 O   0  0  0  0  0  0  0  0  0  0  0  0
   67.2870   43.6670   -3.2730 C   0  0  0  0  0  0  0  0  0  0  0  0
   68.2490   42.8600   -4.0240 C   0  0  0  0  0  0  0  0  0  0  0  0
   68.5130   43.0900   -5.2030 O   0  0  0  0  0  0  0  0  0  0  0  0
   68.9080   41.7410   -3.3120 C   0  0  0  0  0  0  0  0  0  0  0  0
   69.8060   40.9760   -4.0320 O   0  0  0  0  0  0  0  0  0  0  0  0
   70.5500   40.3380   -0.9850 C   0  0  0  0  0  0  0  0  0  0  0  0
   71.1040   39.3040   -0.2030 C   0  0  0  0  0  0  0  0  0  0  0  0
   72.6010   39.2560    0.0080 C   0  0  0  0  0  0  0  0  0  0  0  0
   72.9740   39.7390    1.2270 F   0  0  0  0  0  0  0  0  0  0  0  0
   73.1270   38.0000   -0.0650 F   0  0  0  0  0  0  0  0  0  0  0  0
   73.2880   39.9920   -0.9120 F   0  0  0  0  0  0  0  0  0  0  0  0
   70.6542   37.4638    2.2684 H   0  0  0  0  0  0  0  0  0  0  0  0
   70.2145   36.2883    0.9832 H   0  0  0  0  0  0  0  0  0  0  0  0
   71.8400   37.0526    0.9832 H   0  0  0  0  0  0  0  0  0  0  0  0
   68.1874   37.6862    0.5801 H   0  0  0  0  0  0  0  0  0  0  0  0
   67.2480   39.5240   -0.7992 H   0  0  0  0  0  0  0  0  0  0  0  0
   65.9366   43.8042   -0.1437 H   0  0  0  0  0  0  0  0  0  0  0  0
   64.7486   45.7396   -1.1813 H   0  0  0  0  0  0  0  0  0  0  0  0
   65.1857   46.3421   -3.5650 H   0  0  0  0  0  0  0  0  0  0  0  0
   66.8040   46.0430   -5.3780 H   0  0  0  0  0  0  0  0  0  0  0  0
   70.6400   40.7610   -3.6620 H   0  0  0  0  0  0  0  0  0  0  0  0
   71.2174   41.0956   -1.4215 H   0  0  0  0  0  0  0  0  0  0  0  0
  1  2  1  0
  2  3  2  0
  3  4  1  0
  4  5  2  0
  5  6  1  0
  6  7  1  0
  7  8  1  0
  8  9  2  0
  9 10  1  0
 10 11  2  0
 11 12  1  0
 12 13  1  0
 12 14  2  0
 14 15  1  0
 15 16  2  0
 15 17  1  0
 17 18  1  0
  5 19  1  0
 19 20  2  0
 20 21  1  0
 21 22  1  0
 21 23  1  0
 21 24  1  0
 20  2  1  0
 17  6  2  0
 14  8  1  0
  1 25  1  0
  1 26  1  0
  1 27  1  0
  3 28  1  0
  4 29  1  0
  9 30  1  0
 10 31  1  0
 11 32  1  0
 13 33  1  0
 18 34  1  0
 19 35  1  0
M  END
>  <meeko>  (4) 
{"is_sidechain": [false], "free_energy": -8.266, "intermolecular_energy": -9.573, "internal_energy": -0.184}

$$$$
cand_011_out
     RDKit          3D

 35 37  0  0  0  0  0  0  0  0999 V2000
   75.4760   43.8150   -5.4240 C   0  0  0  0  0  0  0  0  0  0  0  0
   74.6310   42.9500   -4.5270 C   0  0  0  0  0  0  0  0  0  0  0  0
   73.5020   42.3110   -5.0600 C   0  0  0  0  0  0  0  0  0  0  0  0
   72.6970   41.4980   -4.2590 C   0  0  0  0  0  0  0  0  0  0  0  0
   72.9940   41.3020   -2.9070 C   0  0  0  0  0  0  0  0  0  0  0  0
   72.1380   40.4220   -2.0840 C   0  0  0  0  0  0  0  0  0  0  0  0
   70.8010   40.8040   -2.0930 O   0  0  0  0  0  0  0  0  0  0  0  0
   69.8970   40.0710   -1.3670 C   0  0  0  0  0  0  0  0  0  0  0  0
   68.5640   40.4810   -1.4150 C   0  0  0  0  0  0  0  0  0  0  0  0
   67.5930   39.7780   -0.6980 C   0  0  0  0  0  0  0  0  0  0  0  0
   67.9550   38.6670    0.0670 C   0  0  0  0  0  0  0  0  0  0  0  0
   69.2860   38.2600    0.1130 C   0  0  0  0  0  0  0  0  0  0  0  0
   69.5700   37.1660    0.8830 O   0  0  0  0  0  0  0  0  0  0  0  0
   70.2580   38.9630   -0.6050 C   0  0  0  0  0  0  0  0  0  0  0  0
   71.6670   38.5690   -0.5830 C   0  0  0  0  0  0  0  0  0  0  0  0
   72.0650   37.6080    0.0720 O   0  0  0  0  0  0  0  0  0  0  0  0
   72.6150   39.3750   -1.3850 C   0  0  0  0  0  0  0  0  0  0  0  0
   73.9460   39.0050   -1.3490 O   0  0  0  0  0  0  0  0  0  0  0  0
   74.1320   41.9280   -2.3780 C   0  0  0  0  0  0  0  0  0  0  0  0
   74.9590   42.7520   -3.1690 C   0  0  0  0  0  0  0  0  0  0  0  0
   76.1700   43.4070   -2.5410 C   0  0  0  0  0  0  0  0  0  0  0  0
   76.3150   43.0870   -1.2240 F   0  0  0  0  0  0  0  0  0  0  0  0
   77.3490   43.0660   -3.1340 F   0  0  0  0  0  0  0  0  0  0  0  0
   76.1190   44.7690   -2.5910 F   0  0  0  0  0  0  0  0  0  0  0  0
   76.1135   44.4676   -4.8095 H   0  0  0  0  0  0  0  0  0  0  0  0
   76.1084   43.1771   -6.0589 H   0  0  0  0  0  0  0  0  0  0  0  0
   74.8234   44.4323   -6.0589 H   0  0  0  0  0  0  0  0  0  0  0  0
   73.2477   42.4517   -6.1209 H   0  0  0  0  0  0  0  0  0  0  0  0
   71.8171   41.0050   -4.6980 H   0  0  0  0  0  0  0  0  0  0  0  0
   68.2783   41.3565   -2.0166 H   0  0  0  0  0  0  0  0  0  0  0  0
   66.5418   40.0999   -0.7359 H   0  0  0  0  0  0  0  0  0  0  0  0
   67.1901   38.1144    0.6322 H   0  0  0  0  0  0  0  0  0  0  0  0
   68.9060   36.7900    1.4260 H   0  0  0  0  0  0  0  0  0  0  0  0
   74.3370   38.5880   -2.0920 H   0  0  0  0  0  0  0  0  0  0  0  0
   74.3860   41.7723   -1.3191 H   0  0  0  0  0  0  0  0  0  0  0  0
  1  2  1  0
  2  3  2  0
  3  4  1  0
  4  5  2  0
  5  6  1  0
  6  7  1  0
  7  8  1  0
  8  9  2  0
  9 10  1  0
 10 11  2  0
 11 12  1  0
 12 13  1  0
 12 14  2  0
 14 15  1  0
 15 16  2  0
 15 17  1  0
 17 18  1  0
  5 19  1  0
 19 20  2  0
 20 21  1  0
 21 22  1  0
 21 23  1  0
 21 24  1  0
 20  2  1  0
 17  6  2  0
 14  8  1  0
  1 25  1  0
  1 26  1  0
  1 27  1  0
  3 28  1  0
  4 29  1  0
  9 30  1  0
 10 31  1  0
 11 32  1  0
 13 33  1  0
 18 34  1  0
 19 35  1  0
M  END
>  <meeko>  (5) 
{"is_sidechain": [false], "free_energy": -8.238, "intermolecular_energy": -9.494, "internal_energy": -0.229}

$$$$
cand_011_out
     RDKit          3D

 35 37  0  0  0  0  0  0  0  0999 V2000
   75.4770   43.8280   -5.5580 C   0  0  0  0  0  0  0  0  0  0  0  0
   74.5860   43.0240   -4.6490 C   0  0  0  0  0  0  0  0  0  0  0  0
   73.4500   42.3990   -5.1840 C   0  0  0  0  0  0  0  0  0  0  0  0
   72.6030   41.6410   -4.3730 C   0  0  0  0  0  0  0  0  0  0  0  0
   72.8630   41.4890   -3.0070 C   0  0  0  0  0  0  0  0  0  0  0  0
   71.9620   40.6660   -2.1720 C   0  0  0  0  0  0  0  0  0  0  0  0
   72.6080   39.5890   -1.5780 O   0  0  0  0  0  0  0  0  0  0  0  0
   71.8850   38.7430   -0.7760 C   0  0  0  0  0  0  0  0  0  0  0  0
   72.5760   37.6820   -0.1880 C   0  0  0  0  0  0  0  0  0  0  0  0
   71.8990   36.7830    0.6390 C   0  0  0  0  0  0  0  0  0  0  0  0
   70.5320   36.9440    0.8780 C   0  0  0  0  0  0  0  0  0  0  0  0
   69.8460   38.0040    0.2900 C   0  0  0  0  0  0  0  0  0  0  0  0
   68.5090   38.1010    0.5650 O   0  0  0  0  0  0  0  0  0  0  0  0
   70.5230   38.9030   -0.5370 C   0  0  0  0  0  0  0  0  0  0  0  0
   69.8390   40.0290   -1.1750 C   0  0  0  0  0  0  0  0  0  0  0  0
   68.6370   40.2340   -1.0200 O   0  0  0  0  0  0  0  0  0  0  0  0
   70.6500   40.9300   -2.0260 C   0  0  0  0  0  0  0  0  0  0  0  0
   69.9950   41.9830   -2.6340 O   0  0  0  0  0  0  0  0  0  0  0  0
   74.0080   42.1000   -2.4760 C   0  0  0  0  0  0  0  0  0  0  0  0
   74.8780   42.8680   -3.2780 C   0  0  0  0  0  0  0  0  0  0  0  0
   76.0930   43.5110   -2.6460 C   0  0  0  0  0  0  0  0  0  0  0  0
   76.2500   43.1610   -1.3380 F   0  0  0  0  0  0  0  0  0  0  0  0
   77.2680   43.1830   -3.2560 F   0  0  0  0  0  0  0  0  0  0  0  0
   76.0420   44.8730   -2.6660 F   0  0  0  0  0  0  0  0  0  0  0  0
   76.1589   44.4433   -4.9527 H   0  0  0  0  0  0  0  0  0  0  0  0
   76.0633   43.1473   -6.1927 H   0  0  0  0  0  0  0  0  0  0  0  0
   74.8599   44.4809   -6.1927 H   0  0  0  0  0  0  0  0  0  0  0  0
   73.2237   42.5073   -6.2550 H   0  0  0  0  0  0  0  0  0  0  0  0
   71.7193   41.1568   -4.8143 H   0  0  0  0  0  0  0  0  0  0  0  0
   73.6523   37.5542   -0.3758 H   0  0  0  0  0  0  0  0  0  0  0  0
   72.4429   35.9469    1.1029 H   0  0  0  0  0  0  0  0  0  0  0  0
   69.9988   36.2354    1.5289 H   0  0  0  0  0  0  0  0  0  0  0  0
   68.2190   38.1960    1.4510 H   0  0  0  0  0  0  0  0  0  0  0  0
   70.4830   42.6310   -3.1030 H   0  0  0  0  0  0  0  0  0  0  0  0
   74.2336   41.9772   -1.4064 H   0  0  0  0  0  0  0  0  0  0  0  0
  1  2  1  0
  2  3  2  0
  3  4  1  0
  4  5  2  0
  5  6  1  0
  6  7  1  0
  7  8  1  0
  8  9  2  0
  9 10  1  0
 10 11  2  0
 11 12  1  0
 12 13  1  0
 12 14  2  0
 14 15  1  0
 15 16  2  0
 15 17  1  0
 17 18  1  0
  5 19  1  0
 19 20  2  0
 20 21  1  0
 21 22  1  0
 21 23  1  0
 21 24  1  0
 20  2  1  0
 17  6  2  0
 14  8  1  0
  1 25  1  0
  1 26  1  0
  1 27  1  0
  3 28  1  0
  4 29  1  0
  9 30  1  0
 10 31  1  0
 11 32  1  0
 13 33  1  0
 18 34  1  0
 19 35  1  0
M  END
>  <meeko>  (6) 
{"is_sidechain": [false], "free_energy": -8.158, "intermolecular_energy": -9.363, "internal_energy": -0.267}

$$$$
cand_011_out
     RDKit          3D

 35 37  0  0  0  0  0  0  0  0999 V2000
   77.5480   43.5750   -4.3090 C   0  0  0  0  0  0  0  0  0  0  0  0
   76.3780   42.8390   -3.7130 C   0  0  0  0  0  0  0  0  0  0  0  0
   76.3330   42.6370   -2.3260 C   0  0  0  0  0  0  0  0  0  0  0  0
   75.2620   41.9620   -1.7360 C   0  0  0  0  0  0  0  0  0  0  0  0
   74.2090   41.4670   -2.5140 C   0  0  0  0  0  0  0  0  0  0  0  0
   73.0770   40.7720   -1.8660 C   0  0  0  0  0  0  0  0  0  0  0  0
   73.4260   39.5260   -1.3590 O   0  0  0  0  0  0  0  0  0  0  0  0
   72.4650   38.7740   -0.7310 C   0  0  0  0  0  0  0  0  0  0  0  0
   72.8620   37.5360   -0.2240 C   0  0  0  0  0  0  0  0  0  0  0  0
   71.9330   36.7190    0.4260 C   0  0  0  0  0  0  0  0  0  0  0  0
   70.6090   37.1410    0.5680 C   0  0  0  0  0  0  0  0  0  0  0  0
   70.2160   38.3770    0.0610 C   0  0  0  0  0  0  0  0  0  0  0  0
   68.9050   38.7270    0.2330 O   0  0  0  0  0  0  0  0  0  0  0  0
   71.1460   39.1940   -0.5890 C   0  0  0  0  0  0  0  0  0  0  0  0
   70.7750   40.5000   -1.1360 C   0  0  0  0  0  0  0  0  0  0  0  0
   69.6290   40.9380   -1.0580 O   0  0  0  0  0  0  0  0  0  0  0  0
   71.8370   41.2920   -1.7980 C   0  0  0  0  0  0  0  0  0  0  0  0
   71.4760   42.5180   -2.3230 O   0  0  0  0  0  0  0  0  0  0  0  0
   74.2460   41.6840   -3.8990 C   0  0  0  0  0  0  0  0  0  0  0  0
   75.3180   42.3640   -4.5140 C   0  0  0  0  0  0  0  0  0  0  0  0
   75.3070   42.5600   -6.0150 C   0  0  0  0  0  0  0  0  0  0  0  0
   75.3810   43.8730   -6.3720 F   0  0  0  0  0  0  0  0  0  0  0  0
   76.3410   41.9450   -6.6570 F   0  0  0  0  0  0  0  0  0  0  0  0
   74.1760   42.0750   -6.6020 F   0  0  0  0  0  0  0  0  0  0  0  0
   78.1806   43.9729   -3.5018 H   0  0  0  0  0  0  0  0  0  0  0  0
   78.1374   42.8847   -4.9303 H   0  0  0  0  0  0  0  0  0  0  0  0
   77.1810   44.4052   -4.9303 H   0  0  0  0  0  0  0  0  0  0  0  0
   77.1511   43.0147   -1.6951 H   0  0  0  0  0  0  0  0  0  0  0  0
   75.2458   41.8175   -0.6456 H   0  0  0  0  0  0  0  0  0  0  0  0
   73.9046   37.2037   -0.3358 H   0  0  0  0  0  0  0  0  0  0  0  0
   72.2446   35.7429    0.8261 H   0  0  0  0  0  0  0  0  0  0  0  0
   69.8778   36.4979    1.0796 H   0  0  0  0  0  0  0  0  0  0  0  0
   68.6860   39.4970    0.7200 H   0  0  0  0  0  0  0  0  0  0  0  0
   70.8870   43.0740   -1.8520 H   0  0  0  0  0  0  0  0  0  0  0  0
   73.4179   41.3145   -4.5217 H   0  0  0  0  0  0  0  0  0  0  0  0
  1  2  1  0
  2  3  2  0
  3  4  1  0
  4  5  2  0
  5  6  1  0
  6  7  1  0
  7  8  1  0
  8  9  2  0
  9 10  1  0
 10 11  2  0
 11 12  1  0
 12 13  1  0
 12 14  2  0
 14 15  1  0
 15 16  2  0
 15 17  1  0
 17 18  1  0
  5 19  1  0
 19 20  2  0
 20 21  1  0
 21 22  1  0
 21 23  1  0
 21 24  1  0
 20  2  1  0
 17  6  2  0
 14  8  1  0
  1 25  1  0
  1 26  1  0
  1 27  1  0
  3 28  1  0
  4 29  1  0
  9 30  1  0
 10 31  1  0
 11 32  1  0
 13 33  1  0
 18 34  1  0
 19 35  1  0
M  END
>  <meeko>  (7) 
{"is_sidechain": [false], "free_energy": -8.152, "intermolecular_energy": -9.26, "internal_energy": -0.363}

$$$$
cand_011_out
     RDKit          3D

 35 37  0  0  0  0  0  0  0  0999 V2000
   68.1120   38.9970   -0.1860 C   0  0  0  0  0  0  0  0  0  0  0  0
   69.3230   39.6710   -0.7730 C   0  0  0  0  0  0  0  0  0  0  0  0
   69.1460   40.6950   -1.7140 C   0  0  0  0  0  0  0  0  0  0  0  0
   70.2450   41.3470   -2.2770 C   0  0  0  0  0  0  0  0  0  0  0  0
   71.5500   40.9930   -1.9190 C   0  0  0  0  0  0  0  0  0  0  0  0
   72.6980   41.7090   -2.5140 C   0  0  0  0  0  0  0  0  0  0  0  0
   72.4860   43.0790   -2.6190 O   0  0  0  0  0  0  0  0  0  0  0  0
   73.4750   43.8630   -3.1560 C   0  0  0  0  0  0  0  0  0  0  0  0
   73.2270   45.2340   -3.2290 C   0  0  0  0  0  0  0  0  0  0  0  0
   74.1920   46.0890   -3.7670 C   0  0  0  0  0  0  0  0  0  0  0  0
   75.4040   45.5730   -4.2310 C   0  0  0  0  0  0  0  0  0  0  0  0
   75.6490   44.2040   -4.1570 C   0  0  0  0  0  0  0  0  0  0  0  0
   76.8550   43.7670   -4.6310 O   0  0  0  0  0  0  0  0  0  0  0  0
   74.6830   43.3490   -3.6180 C   0  0  0  0  0  0  0  0  0  0  0  0
   74.9010   41.9050   -3.5220 C   0  0  0  0  0  0  0  0  0  0  0  0
   75.9380   41.3740   -3.9160 O   0  0  0  0  0  0  0  0  0  0  0  0
   73.8190   41.0880   -2.9280 C   0  0  0  0  0  0  0  0  0  0  0  0
   74.0260   39.7240   -2.8520 O   0  0  0  0  0  0  0  0  0  0  0  0
   71.7270   39.9800   -0.9640 C   0  0  0  0  0  0  0  0  0  0  0  0
   70.6300   39.3100   -0.3830 C   0  0  0  0  0  0  0  0  0  0  0  0
   70.8840   38.2200    0.6350 C   0  0  0  0  0  0  0  0  0  0  0  0
   70.5120   38.5830    1.8950 F   0  0  0  0  0  0  0  0  0  0  0  0
   70.2160   37.0600    0.3760 F   0  0  0  0  0  0  0  0  0  0  0  0
   72.1990   37.8710    0.7180 F   0  0  0  0  0  0  0  0  0  0  0  0
   68.1704   39.0295    0.9120 H   0  0  0  0  0  0  0  0  0  0  0  0
   67.2035   39.5192   -0.5205 H   0  0  0  0  0  0  0  0  0  0  0  0
   68.0771   37.9497   -0.5205 H   0  0  0  0  0  0  0  0  0  0  0  0
   68.1288   40.9885   -2.0125 H   0  0  0  0  0  0  0  0  0  0  0  0
   70.0824   42.1494   -3.0116 H   0  0  0  0  0  0  0  0  0  0  0  0
   72.2728   45.6412   -2.8634 H   0  0  0  0  0  0  0  0  0  0  0  0
   73.9970   47.1700   -3.8252 H   0  0  0  0  0  0  0  0  0  0  0  0
   76.1637   46.2466   -4.6541 H   0  0  0  0  0  0  0  0  0  0  0  0
   77.4970   43.4290   -4.0370 H   0  0  0  0  0  0  0  0  0  0  0  0
   74.0670   39.3020   -2.0160 H   0  0  0  0  0  0  0  0  0  0  0  0
   72.7470   39.7014   -0.6608 H   0  0  0  0  0  0  0  0  0  0  0  0
  1  2  1  0
  2  3  2  0
  3  4  1  0
  4  5  2  0
  5  6  1  0
  6  7  1  0
  7  8  1  0
  8  9  2  0
  9 10  1  0
 10 11  2  0
 11 12  1  0
 12 13  1  0
 12 14  2  0
 14 15  1  0
 15 16  2  0
 15 17  1  0
 17 18  1  0
  5 19  1  0
 19 20  2  0
 20 21  1  0
 21 22  1  0
 21 23  1  0
 21 24  1  0
 20  2  1  0
 17  6  2  0
 14  8  1  0
  1 25  1  0
  1 26  1  0
  1 27  1  0
  3 28  1  0
  4 29  1  0
  9 30  1  0
 10 31  1  0
 11 32  1  0
 13 33  1  0
 18 34  1  0
 19 35  1  0
M  END
>  <meeko>  (8) 
{"is_sidechain": [false], "free_energy": -8.144, "intermolecular_energy": -9.525, "internal_energy": -0.088}

$$$$
cand_011_out
     RDKit          3D

 35 37  0  0  0  0  0  0  0  0999 V2000
   68.1690   38.6890    0.3820 C   0  0  0  0  0  0  0  0  0  0  0  0
   69.2880   39.2870   -0.4280 C   0  0  0  0  0  0  0  0  0  0  0  0
   69.0040   40.3250   -1.3270 C   0  0  0  0  0  0  0  0  0  0  0  0
   70.0170   40.9070   -2.0920 C   0  0  0  0  0  0  0  0  0  0  0  0
   71.3400   40.4680   -1.9830 C   0  0  0  0  0  0  0  0  0  0  0  0
   72.3990   41.1110   -2.7890 C   0  0  0  0  0  0  0  0  0  0  0  0
   73.5290   41.4290   -2.0440 O   0  0  0  0  0  0  0  0  0  0  0  0
   74.5880   42.0330   -2.6720 C   0  0  0  0  0  0  0  0  0  0  0  0
   75.7070   42.3220   -1.8900 C   0  0  0  0  0  0  0  0  0  0  0  0
   76.8210   42.9370   -2.4670 C   0  0  0  0  0  0  0  0  0  0  0  0
   76.8140   43.2650   -3.8250 C   0  0  0  0  0  0  0  0  0  0  0  0
   75.6960   42.9760   -4.6030 C   0  0  0  0  0  0  0  0  0  0  0  0
   75.7560   43.3240   -5.9240 O   0  0  0  0  0  0  0  0  0  0  0  0
   74.5820   42.3590   -4.0250 C   0  0  0  0  0  0  0  0  0  0  0  0
   73.3870   42.0380   -4.8070 C   0  0  0  0  0  0  0  0  0  0  0  0
   73.3020   42.3020   -6.0050 O   0  0  0  0  0  0  0  0  0  0  0  0
   72.2660   41.3770   -4.1020 C   0  0  0  0  0  0  0  0  0  0  0  0
   71.1360   41.0890   -4.8440 O   0  0  0  0  0  0  0  0  0  0  0  0
   71.6280   39.4410   -1.0720 C   0  0  0  0  0  0  0  0  0  0  0  0
   70.6200   38.8400   -0.2900 C   0  0  0  0  0  0  0  0  0  0  0  0
   70.9900   37.7310    0.6710 C   0  0  0  0  0  0  0  0  0  0  0  0
   70.3250   36.5700    0.4110 F   0  0  0  0  0  0  0  0  0  0  0  0
   72.3150   37.4070    0.6520 F   0  0  0  0  0  0  0  0  0  0  0  0
   70.7110   38.0410    1.9680 F   0  0  0  0  0  0  0  0  0  0  0  0
   68.3886   38.8064    1.4534 H   0  0  0  0  0  0  0  0  0  0  0  0
   67.2270   39.2039    0.1422 H   0  0  0  0  0  0  0  0  0  0  0  0
   68.0736   37.6197    0.1422 H   0  0  0  0  0  0  0  0  0  0  0  0
   67.9699   40.6855   -1.4310 H   0  0  0  0  0  0  0  0  0  0  0  0
   69.7709   41.7213   -2.7894 H   0  0  0  0  0  0  0  0  0  0  0  0
   75.7121   42.0659   -0.8202 H   0  0  0  0  0  0  0  0  0  0  0  0
   77.7042   43.1631   -1.8516 H   0  0  0  0  0  0  0  0  0  0  0  0
   77.6903   43.7508   -4.2789 H   0  0  0  0  0  0  0  0  0  0  0  0
   75.8730   44.2220   -6.1670 H   0  0  0  0  0  0  0  0  0  0  0  0
   71.1180   40.3310   -5.3950 H   0  0  0  0  0  0  0  0  0  0  0  0
   72.6668   39.0955   -0.9648 H   0  0  0  0  0  0  0  0  0  0  0  0
  1  2  1  0
  2  3  2  0
  3  4  1  0
  4  5  2  0
  5  6  1  0
  6  7  1  0
  7  8  1  0
  8  9  2  0
  9 10  1  0
 10 11  2  0
 11 12  1  0
 12 13  1  0
 12 14  2  0
 14 15  1  0
 15 16  2  0
 15 17  1  0
 17 18  1  0
  5 19  1  0
 19 20  2  0
 20 21  1  0
 21 22  1  0
 21 23  1  0
 21 24  1  0
 20  2  1  0
 17  6  2  0
 14  8  1  0
  1 25  1  0
  1 26  1  0
  1 27  1  0
  3 28  1  0
  4 29  1  0
  9 30  1  0
 10 31  1  0
 11 32  1  0
 13 33  1  0
 18 34  1  0
 19 35  1  0
M  END
>  <meeko>  (9) 
{"is_sidechain": [false], "free_energy": -8.075, "intermolecular_energy": -9.433, "internal_energy": -0.099}

$$$$
