cand_016_out
     RDKit          3D

 35 37  0  0  0  0  0  0  0  0999 V2000
   69.8700   39.0410    1.1000 C   0  0  0  0  0  0  0  0  0  0  0  0
   70.8010   39.0700   -0.0830 C   0  0  0  0  0  0  0  0  0  0  0  0
   70.7870   40.1910   -0.9320 C   0  0  0  0  0  0  0  0  0  0  0  0
   71.6360   40.2820   -2.0440 C   0  0  0  0  0  0  0  0  0  0  0  0
   71.6380   41.4680   -2.9270 C   0  0  0  0  0  0  0  0  0  0  0  0
   72.7520   42.2780   -2.7420 O   0  0  0  0  0  0  0  0  0  0  0  0
   72.8790   43.4140   -3.4990 C   0  0  0  0  0  0  0  0  0  0  0  0
   74.0050   44.2060   -3.2700 C   0  0  0  0  0  0  0  0  0  0  0  0
   74.1960   45.3770   -4.0080 C   0  0  0  0  0  0  0  0  0  0  0  0
   73.2620   45.7540   -4.9740 C   0  0  0  0  0  0  0  0  0  0  0  0
   72.1390   44.9630   -5.2010 C   0  0  0  0  0  0  0  0  0  0  0  0
   71.2650   45.3910   -6.1620 O   0  0  0  0  0  0  0  0  0  0  0  0
   71.9480   43.7920   -4.4620 C   0  0  0  0  0  0  0  0  0  0  0  0
   70.7820   42.9320   -4.6690 C   0  0  0  0  0  0  0  0  0  0  0  0
   69.9200   43.1920   -5.5060 O   0  0  0  0  0  0  0  0  0  0  0  0
   70.6690   41.7180   -3.8280 C   0  0  0  0  0  0  0  0  0  0  0  0
   69.5720   40.9050   -4.0400 O   0  0  0  0  0  0  0  0  0  0  0  0
   72.5280   39.2330   -2.2870 C   0  0  0  0  0  0  0  0  0  0  0  0
   72.5620   38.1160   -1.4480 C   0  0  0  0  0  0  0  0  0  0  0  0
   71.7090   38.0210   -0.3360 C   0  0  0  0  0  0  0  0  0  0  0  0
   71.7670   36.7890    0.5380 C   0  0  0  0  0  0  0  0  0  0  0  0
   70.6610   35.9960    0.4320 F   0  0  0  0  0  0  0  0  0  0  0  0
   72.8220   35.9780    0.2500 F   0  0  0  0  0  0  0  0  0  0  0  0
   70.4577   39.0593    2.0297 H   0  0  0  0  0  0  0  0  0  0  0  0
   69.2081   39.9190    1.0673 H   0  0  0  0  0  0  0  0  0  0  0  0
   69.2640   38.1235    1.0673 H   0  0  0  0  0  0  0  0  0  0  0  0
   70.0927   41.0170   -0.7183 H   0  0  0  0  0  0  0  0  0  0  0  0
   74.7416   43.9086   -2.5091 H   0  0  0  0  0  0  0  0  0  0  0  0
   75.0830   46.0020   -3.8275 H   0  0  0  0  0  0  0  0  0  0  0  0
   73.4130   46.6754   -5.5556 H   0  0  0  0  0  0  0  0  0  0  0  0
   70.4730   44.9160   -6.3220 H   0  0  0  0  0  0  0  0  0  0  0  0
   69.4520   40.4870   -4.8710 H   0  0  0  0  0  0  0  0  0  0  0  0
   73.2104   39.2876   -3.1480 H   0  0  0  0  0  0  0  0  0  0  0  0
   73.2671   37.2991   -1.6615 H   0  0  0  0  0  0  0  0  0  0  0  0
   71.8530   37.2110    1.5502 H   0  0  0  0  0  0  0  0  0  0  0  0
  1  2  1  0
  2  3  2  0
  3  4  1  0
  4  5  1  0
  5  6  1  0
  6  7  1  0
  7  8  2  0
  8  9  1  0
  9 10  2  0
 10 11  1  0
 11 12  1  0
 11 13  2  0
 13 14  1  0
 14 15  2  0
 14 16  1  0
 16 17  1  0
  4 18  2  0
 18 19  1  0
 19 20  2  0
 20 21  1  0
 21 22  1  0
 21 23  1  0
 20  2  1  0
 16  5  2  0
 13  7  1  0
  1 24  1  0
  1 25  1  0
  1 26  1  0
  3 27  1  0
  8 28  1  0
  9 29  1  0
 10 30  1  0
 12 31  1  0
 17 32  1  0
 18 33  1  0
 19 34  1  0
 21 35  1  0
M  END
>  <meeko>  (1) 
{"is_sidechain": [false], "free_energy": -7.989, "intermolecular_energy": -9.39, "internal_energy": -0.463}

$$$$
cand_016_out
     RDKit          3D

 35 37  0  0  0  0  0  0  0  0999 V2000
   69.0400   38.9750    0.1780 C   0  0  0  0  0  0  0  0  0  0  0  0
   70.4610   38.8510   -0.3010 C   0  0  0  0  0  0  0  0  0  0  0  0
   70.9640   39.8140   -1.1960 C   0  0  0  0  0  0  0  0  0  0  0  0
   72.2820   39.7600   -1.6710 C   0  0  0  0  0  0  0  0  0  0  0  0
   72.8180   40.7820   -2.5950 C   0  0  0  0  0  0  0  0  0  0  0  0
   73.8970   41.4790   -2.0630 O   0  0  0  0  0  0  0  0  0  0  0  0
   74.4910   42.4570   -2.8170 C   0  0  0  0  0  0  0  0  0  0  0  0
   75.5590   43.1430   -2.2380 C   0  0  0  0  0  0  0  0  0  0  0  0
   76.2100   44.1510   -2.9530 C   0  0  0  0  0  0  0  0  0  0  0  0
   75.7920   44.4730   -4.2460 C   0  0  0  0  0  0  0  0  0  0  0  0
   74.7260   43.7880   -4.8220 C   0  0  0  0  0  0  0  0  0  0  0  0
   74.3700   44.1530   -6.0900 O   0  0  0  0  0  0  0  0  0  0  0  0
   74.0750   42.7790   -4.1050 C   0  0  0  0  0  0  0  0  0  0  0  0
   72.9500   42.0350   -4.6730 C   0  0  0  0  0  0  0  0  0  0  0  0
   72.5280   42.2550   -5.8070 O   0  0  0  0  0  0  0  0  0  0  0  0
   72.3230   40.9920   -3.8290 C   0  0  0  0  0  0  0  0  0  0  0  0
   71.2700   40.2850   -4.3790 O   0  0  0  0  0  0  0  0  0  0  0  0
   73.1100   38.7280   -1.2160 C   0  0  0  0  0  0  0  0  0  0  0  0
   72.6300   37.7690   -0.3210 C   0  0  0  0  0  0  0  0  0  0  0  0
   71.3090   37.8200    0.1530 C   0  0  0  0  0  0  0  0  0  0  0  0
   70.8250   36.7540    1.1090 C   0  0  0  0  0  0  0  0  0  0  0  0
   70.3570   35.6350    0.4830 F   0  0  0  0  0  0  0  0  0  0  0  0
   71.7950   36.3140    1.9580 F   0  0  0  0  0  0  0  0  0  0  0  0
   69.0226   38.9765    1.2779 H   0  0  0  0  0  0  0  0  0  0  0  0
   68.6073   39.9143   -0.1968 H   0  0  0  0  0  0  0  0  0  0  0  0
   68.4512   38.1248   -0.1968 H   0  0  0  0  0  0  0  0  0  0  0  0
   70.3063   40.6296   -1.5312 H   0  0  0  0  0  0  0  0  0  0  0  0
   75.8881   42.8903   -1.2193 H   0  0  0  0  0  0  0  0  0  0  0  0
   77.0526   44.6916   -2.4972 H   0  0  0  0  0  0  0  0  0  0  0  0
   76.3046   45.2671   -4.8086 H   0  0  0  0  0  0  0  0  0  0  0  0
   73.6980   44.7930   -6.2240 H   0  0  0  0  0  0  0  0  0  0  0  0
   70.4420   40.7050   -4.5120 H   0  0  0  0  0  0  0  0  0  0  0  0
   74.1509   38.6712   -1.5671 H   0  0  0  0  0  0  0  0  0  0  0  0
   73.2965   36.9620    0.0175 H   0  0  0  0  0  0  0  0  0  0  0  0
   70.0191   37.2654    1.6558 H   0  0  0  0  0  0  0  0  0  0  0  0
  1  2  1  0
  2  3  2  0
  3  4  1  0
  4  5  1  0
  5  6  1  0
  6  7  1  0
  7  8  2  0
  8  9  1  0
  9 10  2  0
 10 11  1  0
 11 12  1  0
 11 13  2  0
 13 14  1  0
 14 15  2  0
 14 16  1  0
 16 17  1  0
  4 18  2  0
 18 19  1  0
 19 20  2  0
 20 21  1  0
 21 22  1  0
 21 23  1  0
 20  2  1  0
 16  5  2  0
 13  7  1  0
  1 24  1  0
  1 25  1  0
  1 26  1  0
  3 27  1  0
  8 28  1  0
  9 29  1  0
 10 30  1  0
 12 31  1  0
 17 32  1  0
 18 33  1  0
 19 34  1  0
 21 35  1  0
M  END
>  <meeko>  (2) 
{"is_sidechain": [false], "free_energy": -7.965, "intermolecular_energy": -9.426, "internal_energy": -0.399}

$$$$
cand_016_out
     RDKit          3D

 35 37  0  0  0  0  0  0  0  0999 V2000
   72.7180   37.6030   -0.3440 C   0  0  0  0  0  0  0  0  0  0  0  0
   71.5190   38.4960   -0.5190 C   0  0  0  0  0  0  0  0  0  0  0  0
   71.5970   39.5690   -1.4260 C   0  0  0  0  0  0  0  0  0  0  0  0
   70.5120   40.4310   -1.6410 C   0  0  0  0  0  0  0  0  0  0  0  0
   70.5850   41.5460   -2.6090 C   0  0  0  0  0  0  0  0  0  0  0  0
   71.7120   42.3400   -2.4360 O   0  0  0  0  0  0  0  0  0  0  0  0
   71.9030   43.4110   -3.2700 C   0  0  0  0  0  0  0  0  0  0  0  0
   73.0390   44.1910   -3.0510 C   0  0  0  0  0  0  0  0  0  0  0  0
   73.2940   45.2970   -3.8650 C   0  0  0  0  0  0  0  0  0  0  0  0
   72.4130   45.6220   -4.8980 C   0  0  0  0  0  0  0  0  0  0  0  0
   71.2790   44.8430   -5.1150 C   0  0  0  0  0  0  0  0  0  0  0  0
   70.4600   45.2180   -6.1430 O   0  0  0  0  0  0  0  0  0  0  0  0
   71.0250   43.7370   -4.2990 C   0  0  0  0  0  0  0  0  0  0  0  0
   69.8450   42.8920   -4.4930 C   0  0  0  0  0  0  0  0  0  0  0  0
   69.0270   43.1090   -5.3840 O   0  0  0  0  0  0  0  0  0  0  0  0
   69.6630   41.7490   -3.5690 C   0  0  0  0  0  0  0  0  0  0  0  0
   68.5530   40.9490   -3.7680 O   0  0  0  0  0  0  0  0  0  0  0  0
   69.3240   40.1900   -0.9430 C   0  0  0  0  0  0  0  0  0  0  0  0
   69.2260   39.1240   -0.0460 C   0  0  0  0  0  0  0  0  0  0  0  0
   70.3130   38.2620    0.1740 C   0  0  0  0  0  0  0  0  0  0  0  0
   70.1710   37.1300    1.1660 C   0  0  0  0  0  0  0  0  0  0  0  0
   70.5400   35.9170    0.6610 F   0  0  0  0  0  0  0  0  0  0  0  0
   70.9270   37.3010    2.2860 F   0  0  0  0  0  0  0  0  0  0  0  0
   72.9134   37.4575    0.7287 H   0  0  0  0  0  0  0  0  0  0  0  0
   72.5219   36.6291   -0.8164 H   0  0  0  0  0  0  0  0  0  0  0  0
   73.5949   38.0698   -0.8164 H   0  0  0  0  0  0  0  0  0  0  0  0
   72.5324   39.7358   -1.9802 H   0  0  0  0  0  0  0  0  0  0  0  0
   73.7336   43.9349   -2.2374 H   0  0  0  0  0  0  0  0  0  0  0  0
   74.1893   45.9122   -3.6920 H   0  0  0  0  0  0  0  0  0  0  0  0
   72.6142   46.4924   -5.5399 H   0  0  0  0  0  0  0  0  0  0  0  0
   70.6670   44.9700   -7.0230 H   0  0  0  0  0  0  0  0  0  0  0  0
   68.1070   40.9640   -4.5930 H   0  0  0  0  0  0  0  0  0  0  0  0
   68.4568   40.8477   -1.1024 H   0  0  0  0  0  0  0  0  0  0  0  0
   68.2836   38.9570    0.4962 H   0  0  0  0  0  0  0  0  0  0  0  0
   69.0972   37.1469    1.4041 H   0  0  0  0  0  0  0  0  0  0  0  0
  1  2  1  0
  2  3  2  0
  3  4  1  0
  4  5  1  0
  5  6  1  0
  6  7  1  0
  7  8  2  0
  8  9  1  0
  9 10  2  0
 10 11  1  0
 11 12  1  0
 11 13  2  0
 13 14  1  0
 14 15  2  0
 14 16  1  0
 16 17  1  0
  4 18  2  0
 18 19  1  0
 19 20  2  0
 20 21  1  0
 21 22  1  0
 21 23  1  0
 20  2  1  0
 16  5  2  0
 13  7  1  0
  1 24  1  0
  1 25  1  0
  1 26  1  0
  3 27  1  0
  8 28  1  0
  9 29  1  0
 10 30  1  0
 12 31  1  0
 17 32  1  0
 18 33  1  0
 19 34  1  0
 21 35  1  0
M  END
>  <meeko>  (3) 
{"is_sidechain": [false], "free_energy": -7.813, "intermolecular_energy": -9.622, "internal_energy": -0.024}

$$$$
cand_016_out
     RDKit          3D

 35 37  0  0  0  0  0  0  0  0999 V2000
   72.9610   39.3520   -0.2310 C   0  0  0  0  0  0  0  0  0  0  0  0
   71.4600   39.3410   -0.3340 C   0  0  0  0  0  0  0  0  0  0  0  0
   70.8200   40.3630   -1.0590 C   0  0  0  0  0  0  0  0  0  0  0  0
   69.4250   40.4030   -1.1990 C   0  0  0  0  0  0  0  0  0  0  0  0
   68.7510   41.4640   -1.9770 C   0  0  0  0  0  0  0  0  0  0  0  0
   67.8420   42.1950   -1.2210 O   0  0  0  0  0  0  0  0  0  0  0  0
   67.1470   43.2120   -1.8230 C   0  0  0  0  0  0  0  0  0  0  0  0
   66.2330   43.9090   -1.0310 C   0  0  0  0  0  0  0  0  0  0  0  0
   65.4920   44.9580   -1.5820 C   0  0  0  0  0  0  0  0  0  0  0  0
   65.6660   45.3090   -2.9210 C   0  0  0  0  0  0  0  0  0  0  0  0
   66.5780   44.6120   -3.7090 C   0  0  0  0  0  0  0  0  0  0  0  0
   66.6990   45.0090   -5.0120 O   0  0  0  0  0  0  0  0  0  0  0  0
   67.3190   43.5620   -3.1580 C   0  0  0  0  0  0  0  0  0  0  0  0
   68.2870   42.8040   -3.9510 C   0  0  0  0  0  0  0  0  0  0  0  0
   68.5020   43.0580   -5.1350 O   0  0  0  0  0  0  0  0  0  0  0  0
   69.0150   41.7050   -3.2750 C   0  0  0  0  0  0  0  0  0  0  0  0
   69.9370   41.0030   -4.0290 O   0  0  0  0  0  0  0  0  0  0  0  0
   68.6690   39.3810   -0.6150 C   0  0  0  0  0  0  0  0  0  0  0  0
   69.2890   38.3530    0.1000 C   0  0  0  0  0  0  0  0  0  0  0  0
   70.6850   38.3140    0.2450 C   0  0  0  0  0  0  0  0  0  0  0  0
   71.3160   37.1930    1.0410 C   0  0  0  0  0  0  0  0  0  0  0  0
   70.4040   36.3880    1.6590 F   0  0  0  0  0  0  0  0  0  0  0  0
   72.0780   36.3600    0.2800 F   0  0  0  0  0  0  0  0  0  0  0  0
   73.2558   39.3542    0.8288 H   0  0  0  0  0  0  0  0  0  0  0  0
   73.3689   38.4568   -0.7232 H   0  0  0  0  0  0  0  0  0  0  0  0
   73.3557   40.2531   -0.7232 H   0  0  0  0  0  0  0  0  0  0  0  0
   71.4288   41.1502   -1.5277 H   0  0  0  0  0  0  0  0  0  0  0  0
   66.0962   43.6331    0.0250 H   0  0  0  0  0  0  0  0  0  0  0  0
   64.7707   45.5075   -0.9593 H   0  0  0  0  0  0  0  0  0  0  0  0
   65.0833   46.1355   -3.3537 H   0  0  0  0  0  0  0  0  0  0  0  0
   67.4300   45.5320   -5.2780 H   0  0  0  0  0  0  0  0  0  0  0  0
   70.6220   41.4610   -4.4760 H   0  0  0  0  0  0  0  0  0  0  0  0
   67.5740   39.3867   -0.7199 H   0  0  0  0  0  0  0  0  0  0  0  0
   68.6745   37.5628    0.5559 H   0  0  0  0  0  0  0  0  0  0  0  0
   71.9297   37.7307    1.7788 H   0  0  0  0  0  0  0  0  0  0  0  0
  1  2  1  0
  2  3  2  0
  3  4  1  0
  4  5  1  0
  5  6  1  0
  6  7  1  0
  7  8  2  0
  8  9  1  0
  9 10  2  0
 10 11  1  0
 11 12  1  0
 11 13  2  0
 13 14  1  0
 14 15  2  0
 14 16  1  0
 16 17  1  0
  4 18  2  0
 18 19  1  0
 19 20  2  0
 20 21  1  0
 21 22  1  0
 21 23  1  0
 20  2  1  0
 16  5  2  0
 13  7  1  0
  1 24  1  0
  1 25  1  0
  1 26  1  0
  3 27  1  0
  8 28  1  0
  9 29  1  0
 10 30  1  0
 12 31  1  0
 17 32  1  0
 18 33  1  0
 19 34  1  0
 21 35  1  0
M  END
>  <meeko>  (4) 
{"is_sidechain": [false], "free_energy": -7.698, "intermolecular_energy": -9.217, "internal_energy": -0.293}

$$$$
cand_016_out
     RDKit          3D

 35 37  0  0  0  0  0  0  0  0999 V2000
   73.7360   45.7900   -3.2690 C   0  0  0  0  0  0  0  0  0  0  0  0
   73.3800   44.4340   -3.8150 C   0  0  0  0  0  0  0  0  0  0  0  0
   73.0460   43.4050   -2.9150 C   0  0  0  0  0  0  0  0  0  0  0  0
   72.6960   42.1220   -3.3610 C   0  0  0  0  0  0  0  0  0  0  0  0
   72.3260   41.0450   -2.4180 C   0  0  0  0  0  0  0  0  0  0  0  0
   70.9600   40.9970   -2.1620 O   0  0  0  0  0  0  0  0  0  0  0  0
   70.4810   40.0420   -1.3030 C   0  0  0  0  0  0  0  0  0  0  0  0
   69.1060   40.0390   -1.0620 C   0  0  0  0  0  0  0  0  0  0  0  0
   68.5520   39.0920   -0.1970 C   0  0  0  0  0  0  0  0  0  0  0  0
   69.3710   38.1490    0.4250 C   0  0  0  0  0  0  0  0  0  0  0  0
   70.7430   38.1530    0.1830 C   0  0  0  0  0  0  0  0  0  0  0  0
   71.4860   37.2010    0.8240 O   0  0  0  0  0  0  0  0  0  0  0  0
   71.2970   39.1020   -0.6820 C   0  0  0  0  0  0  0  0  0  0  0  0
   72.7330   39.1410   -0.9630 C   0  0  0  0  0  0  0  0  0  0  0  0
   73.5180   38.3400   -0.4600 O   0  0  0  0  0  0  0  0  0  0  0  0
   73.2210   40.1910   -1.8870 C   0  0  0  0  0  0  0  0  0  0  0  0
   74.5760   40.2120   -2.1570 O   0  0  0  0  0  0  0  0  0  0  0  0
   72.6610   41.8850   -4.7380 C   0  0  0  0  0  0  0  0  0  0  0  0
   72.9790   42.8970   -5.6460 C   0  0  0  0  0  0  0  0  0  0  0  0
   73.3350   44.1810   -5.2020 C   0  0  0  0  0  0  0  0  0  0  0  0
   73.6880   45.2450   -6.2170 C   0  0  0  0  0  0  0  0  0  0  0  0
   74.1700   44.7380   -7.3890 F   0  0  0  0  0  0  0  0  0  0  0  0
   72.6260   46.0220   -6.5680 F   0  0  0  0  0  0  0  0  0  0  0  0
   73.7272   45.7564   -2.1695 H   0  0  0  0  0  0  0  0  0  0  0  0
   74.7393   46.0744   -3.6191 H   0  0  0  0  0  0  0  0  0  0  0  0
   73.0018   46.5306   -3.6191 H   0  0  0  0  0  0  0  0  0  0  0  0
   73.0597   43.6120   -1.8347 H   0  0  0  0  0  0  0  0  0  0  0  0
   68.4594   40.7814   -1.5526 H   0  0  0  0  0  0  0  0  0  0  0  0
   67.4687   39.0898   -0.0061 H   0  0  0  0  0  0  0  0  0  0  0  0
   68.9340   37.4034    1.1055 H   0  0  0  0  0  0  0  0  0  0  0  0
   71.1950   36.8520    1.6440 H   0  0  0  0  0  0  0  0  0  0  0  0
   74.8770   40.3340   -3.0360 H   0  0  0  0  0  0  0  0  0  0  0  0
   72.3795   40.8892   -5.1109 H   0  0  0  0  0  0  0  0  0  0  0  0
   72.9503   42.6854   -6.7251 H   0  0  0  0  0  0  0  0  0  0  0  0
   74.4583   45.8338   -5.6974 H   0  0  0  0  0  0  0  0  0  0  0  0
  1  2  1  0
  2  3  2  0
  3  4  1  0
  4  5  1  0
  5  6  1  0
  6  7  1  0
  7  8  2  0
  8  9  1  0
  9 10  2  0
 10 11  1  0
 11 12  1  0
 11 13  2  0
 13 14  1  0
 14 15  2  0
 14 16  1  0
 16 17  1  0
  4 18  2  0
 18 19  1  0
 19 20  2  0
 20 21  1  0
 21 22  1  0
 21 23  1  0
 20  2  1  0
 16  5  2  0
 13  7  1  0
  1 24  1  0
  1 25  1  0
  1 26  1  0
  3 27  1  0
  8 28  1  0
  9 29  1  0
 10 30  1  0
 12 31  1  0
 17 32  1  0
 18 33  1  0
 19 34  1  0
 21 35  1  0
M  END
>  <meeko>  (5) 
{"is_sidechain": [false], "free_energy": -7.578, "intermolecular_energy": -8.839, "internal_energy": -0.531}

$$$$
cand_016_out
     RDKit          3D

 35 37  0  0  0  0  0  0  0  0999 V2000
   74.3380   45.7820   -3.6490 C   0  0  0  0  0  0  0  0  0  0  0  0
   74.2650   44.3490   -3.1940 C   0  0  0  0  0  0  0  0  0  0  0  0
   73.0020   43.7520   -3.0240 C   0  0  0  0  0  0  0  0  0  0  0  0
   72.8690   42.4190   -2.6100 C   0  0  0  0  0  0  0  0  0  0  0  0
   71.5430   41.7840   -2.4510 C   0  0  0  0  0  0  0  0  0  0  0  0
   71.4470   41.0170   -1.2960 O   0  0  0  0  0  0  0  0  0  0  0  0
   70.2680   40.3710   -1.0250 C   0  0  0  0  0  0  0  0  0  0  0  0
   70.2200   39.6000    0.1370 C   0  0  0  0  0  0  0  0  0  0  0  0
   69.0480   38.9160    0.4720 C   0  0  0  0  0  0  0  0  0  0  0  0
   67.9270   39.0050   -0.3540 C   0  0  0  0  0  0  0  0  0  0  0  0
   67.9760   39.7750   -1.5130 C   0  0  0  0  0  0  0  0  0  0  0  0
   66.8420   39.8190   -2.2750 O   0  0  0  0  0  0  0  0  0  0  0  0
   69.1490   40.4580   -1.8480 C   0  0  0  0  0  0  0  0  0  0  0  0
   69.2440   41.2780   -3.0570 C   0  0  0  0  0  0  0  0  0  0  0  0
   68.2970   41.4120   -3.8300 O   0  0  0  0  0  0  0  0  0  0  0  0
   70.5340   41.9540   -3.3260 C   0  0  0  0  0  0  0  0  0  0  0  0
   70.6100   42.7370   -4.4620 O   0  0  0  0  0  0  0  0  0  0  0  0
   74.0300   41.6720   -2.3880 C   0  0  0  0  0  0  0  0  0  0  0  0
   75.2920   42.2460   -2.5610 C   0  0  0  0  0  0  0  0  0  0  0  0
   75.4280   43.5830   -2.9710 C   0  0  0  0  0  0  0  0  0  0  0  0
   76.8120   44.1700   -3.1310 C   0  0  0  0  0  0  0  0  0  0  0  0
   77.1660   45.0110   -2.1170 F   0  0  0  0  0  0  0  0  0  0  0  0
   77.7930   43.2260   -3.1770 F   0  0  0  0  0  0  0  0  0  0  0  0
   74.3717   46.4441   -2.7713 H   0  0  0  0  0  0  0  0  0  0  0  0
   75.2448   45.9288   -4.2541 H   0  0  0  0  0  0  0  0  0  0  0  0
   73.4508   46.0202   -4.2541 H   0  0  0  0  0  0  0  0  0  0  0  0
   72.0970   44.3456   -3.2207 H   0  0  0  0  0  0  0  0  0  0  0  0
   71.1035   39.5306    0.7886 H   0  0  0  0  0  0  0  0  0  0  0  0
   69.0094   38.3072    1.3873 H   0  0  0  0  0  0  0  0  0  0  0  0
   67.0047   38.4669   -0.0896 H   0  0  0  0  0  0  0  0  0  0  0  0
   66.0240   40.0610   -1.8860 H   0  0  0  0  0  0  0  0  0  0  0  0
   70.1300   42.4950   -5.2310 H   0  0  0  0  0  0  0  0  0  0  0  0
   73.9489   40.6210   -2.0737 H   0  0  0  0  0  0  0  0  0  0  0  0
   76.1923   41.6424   -2.3735 H   0  0  0  0  0  0  0  0  0  0  0  0
   76.7369   44.7134   -4.0844 H   0  0  0  0  0  0  0  0  0  0  0  0
  1  2  1  0
  2  3  2  0
  3  4  1  0
  4  5  1  0
  5  6  1  0
  6  7  1  0
  7  8  2  0
  8  9  1  0
  9 10  2  0
 10 11  1  0
 11 12  1  0
 11 13  2  0
 13 14  1  0
 14 15  2  0
 14 16  1  0
 16 17  1  0
  4 18  2  0
 18 19  1  0
 19 20  2  0
 20 21  1  0
 21 22  1  0
 21 23  1  0
 20  2  1  0
 16  5  2  0
 13  7  1  0
  1 24  1  0
  1 25  1  0
  1 26  1  0
  3 27  1  0
  8 28  1  0
  9 29  1  0
 10 30  1  0
 12 31  1  0
 17 32  1  0
 18 33  1  0
 19 34  1  0
 21 35  1  0
M  END
>  <meeko>  (6) 
{"is_sidechain": [false], "free_energy": -7.55, "intermolecular_energy": -9.168, "internal_energy": -0.169}

$$$$
cand_016_out
     RDKit          3D

 35 37  0  0  0  0  0  0  0  0999 V2000
   75.1040   44.2490   -3.0360 C   0  0  0  0  0  0  0  0  0  0  0  0
   74.1140   43.2800   -3.6250 C   0  0  0  0  0  0  0  0  0  0  0  0
   73.4080   42.4200   -2.7620 C   0  0  0  0  0  0  0  0  0  0  0  0
   72.4670   41.5020   -3.2470 C   0  0  0  0  0  0  0  0  0  0  0  0
   71.7090   40.6130   -2.3410 C   0  0  0  0  0  0  0  0  0  0  0  0
   72.4880   39.5910   -1.8100 O   0  0  0  0  0  0  0  0  0  0  0  0
   71.9090   38.6930   -0.9510 C   0  0  0  0  0  0  0  0  0  0  0  0
   72.7230   37.6750   -0.4550 C   0  0  0  0  0  0  0  0  0  0  0  0
   72.1950   36.7270    0.4250 C   0  0  0  0  0  0  0  0  0  0  0  0
   70.8550   36.7980    0.8080 C   0  0  0  0  0  0  0  0  0  0  0  0
   70.0440   37.8150    0.3110 C   0  0  0  0  0  0  0  0  0  0  0  0
   68.7410   37.8250    0.7280 O   0  0  0  0  0  0  0  0  0  0  0  0
   70.5720   38.7630   -0.5700 C   0  0  0  0  0  0  0  0  0  0  0  0
   69.7540   39.8470   -1.1160 C   0  0  0  0  0  0  0  0  0  0  0  0
   68.5680   39.9810   -0.8210 O   0  0  0  0  0  0  0  0  0  0  0  0
   70.4080   40.7950   -2.0480 C   0  0  0  0  0  0  0  0  0  0  0  0
   69.6310   41.8230   -2.5470 O   0  0  0  0  0  0  0  0  0  0  0  0
   72.2190   41.4690   -4.6230 C   0  0  0  0  0  0  0  0  0  0  0  0
   72.9030   42.3210   -5.4930 C   0  0  0  0  0  0  0  0  0  0  0  0
   73.8500   43.2390   -5.0090 C   0  0  0  0  0  0  0  0  0  0  0  0
   74.5800   44.1330   -5.9860 C   0  0  0  0  0  0  0  0  0  0  0  0
   75.2250   43.4460   -6.9730 F   0  0  0  0  0  0  0  0  0  0  0  0
   73.7570   45.0060   -6.6310 F   0  0  0  0  0  0  0  0  0  0  0  0
   75.0551   44.2012   -1.9381 H   0  0  0  0  0  0  0  0  0  0  0  0
   76.1184   43.9851   -3.3697 H   0  0  0  0  0  0  0  0  0  0  0  0
   74.8619   45.2688   -3.3697 H   0  0  0  0  0  0  0  0  0  0  0  0
   73.6000   42.4701   -1.6800 H   0  0  0  0  0  0  0  0  0  0  0  0
   73.7794   37.6185   -0.7563 H   0  0  0  0  0  0  0  0  0  0  0  0
   72.8364   35.9236    0.8165 H   0  0  0  0  0  0  0  0  0  0  0  0
   70.4400   36.0517    1.5014 H   0  0  0  0  0  0  0  0  0  0  0  0
   68.5370   37.6870    1.6320 H   0  0  0  0  0  0  0  0  0  0  0  0
   68.7030   41.8180   -2.4120 H   0  0  0  0  0  0  0  0  0  0  0  0
   71.4765   40.7638   -5.0247 H   0  0  0  0  0  0  0  0  0  0  0  0
   72.6973   42.2726   -6.5725 H   0  0  0  0  0  0  0  0  0  0  0  0
   75.2977   44.6631   -5.3426 H   0  0  0  0  0  0  0  0  0  0  0  0
  1  2  1  0
  2  3  2  0
  3  4  1  0
  4  5  1  0
  5  6  1  0
  6  7  1  0
  7  8  2  0
  8  9  1  0
  9 10  2  0
 10 11  1  0
 11 12  1  0
 11 13  2  0
 13 14  1  0
 14 15  2  0
 14 16  1  0
 16 17  1  0
  4 18  2  0
 18 19  1  0
 19 20  2  0
 20 21  1  0
 21 22  1  0
 21 23  1  0
 20  2  1  0
 16  5  2  0
 13  7  1  0
  1 24  1  0
  1 25  1  0
  1 26  1  0
  3 27  1  0
  8 28  1  0
  9 29  1  0
 10 30  1  0
 12 31  1  0
 17 32  1  0
 18 33  1  0
 19 34  1  0
 21 35  1  0
M  END
>  <meeko>  (7) 
{"is_sidechain": [false], "free_energy": -7.528, "intermolecular_energy": -8.86, "internal_energy": -0.451}

$$$$
cand_016_out
     RDKit          3D

 35 37  0  0  0  0  0  0  0  0999 V2000
   69.8470   38.9140    1.1690 C   0  0  0  0  0  0  0  0  0  0  0  0
   70.4370   39.2350   -0.1780 C   0  0  0  0  0  0  0  0  0  0  0  0
   69.8130   40.2080   -0.9790 C   0  0  0  0  0  0  0  0  0  0  0  0
   70.3190   40.5590   -2.2390 C   0  0  0  0  0  0  0  0  0  0  0  0
   69.6770   41.5960   -3.0740 C   0  0  0  0  0  0  0  0  0  0  0  0
   70.5760   42.5470   -3.5420 O   0  0  0  0  0  0  0  0  0  0  0  0
   70.1110   43.5670   -4.3310 C   0  0  0  0  0  0  0  0  0  0  0  0
   71.0440   44.5090   -4.7650 C   0  0  0  0  0  0  0  0  0  0  0  0
   70.6370   45.5740   -5.5720 C   0  0  0  0  0  0  0  0  0  0  0  0
   69.2980   45.6960   -5.9460 C   0  0  0  0  0  0  0  0  0  0  0  0
   68.3670   44.7550   -5.5110 C   0  0  0  0  0  0  0  0  0  0  0  0
   67.0730   44.9350   -5.9140 O   0  0  0  0  0  0  0  0  0  0  0  0
   68.7760   43.6910   -4.7030 C   0  0  0  0  0  0  0  0  0  0  0  0
   67.8300   42.6810   -4.2240 C   0  0  0  0  0  0  0  0  0  0  0  0
   66.6360   42.7150   -4.5160 O   0  0  0  0  0  0  0  0  0  0  0  0
   68.3620   41.5970   -3.3660 C   0  0  0  0  0  0  0  0  0  0  0  0
   67.4640   40.6410   -2.9300 O   0  0  0  0  0  0  0  0  0  0  0  0
   71.4870   39.9310   -2.6840 C   0  0  0  0  0  0  0  0  0  0  0  0
   72.1250   38.9690   -1.8970 C   0  0  0  0  0  0  0  0  0  0  0  0
   71.6170   38.6130   -0.6370 C   0  0  0  0  0  0  0  0  0  0  0  0
   72.3290   37.5570    0.1770 C   0  0  0  0  0  0  0  0  0  0  0  0
   72.4740   36.3710   -0.4830 F   0  0  0  0  0  0  0  0  0  0  0  0
   73.5880   37.9230    0.5450 F   0  0  0  0  0  0  0  0  0  0  0  0
   70.5185   39.2794    1.9599 H   0  0  0  0  0  0  0  0  0  0  0  0
   68.8664   39.4030    1.2657 H   0  0  0  0  0  0  0  0  0  0  0  0
   69.7249   37.8251    1.2657 H   0  0  0  0  0  0  0  0  0  0  0  0
   68.9052   40.7063   -0.6079 H   0  0  0  0  0  0  0  0  0  0  0  0
   72.0999   44.4131   -4.4718 H   0  0  0  0  0  0  0  0  0  0  0  0
   71.3726   46.3173   -5.9131 H   0  0  0  0  0  0  0  0  0  0  0  0
   68.9781   46.5337   -6.5832 H   0  0  0  0  0  0  0  0  0  0  0  0
   66.4120   45.1510   -5.2860 H   0  0  0  0  0  0  0  0  0  0  0  0
   66.6900   40.4640   -3.4280 H   0  0  0  0  0  0  0  0  0  0  0  0
   71.9079   40.1976   -3.6647 H   0  0  0  0  0  0  0  0  0  0  0  0
   73.0388   38.4832   -2.2698 H   0  0  0  0  0  0  0  0  0  0  0  0
   71.6757   37.4420    1.0545 H   0  0  0  0  0  0  0  0  0  0  0  0
  1  2  1  0
  2  3  2  0
  3  4  1  0
  4  5  1  0
  5  6  1  0
  6  7  1  0
  7  8  2  0
  8  9  1  0
  9 10  2  0
 10 11  1  0
 11 12  1  0
 11 13  2  0
 13 14  1  0
 14 15  2  0
 14 16  1  0
 16 17  1  0
  4 18  2  0
 18 19  1  0
 19 20  2  0
 20 21  1  0
 21 22  1  0
 21 23  1  0
 20  2  1  0
 16  5  2  0
 13  7  1  0
  1 24  1  0
  1 25  1  0
  1 26  1  0
  3 27  1  0
  8 28  1  0
  9 29  1  0
 10 30  1  0
 12 31  1  0
 17 32  1  0
 18 33  1  0
 19 34  1  0
 21 35  1  0
M  END
>  <meeko>  (8) 
{"is_sidechain": [false], "free_energy": -7.49, "intermolecular_energy": -8.988, "internal_energy": -0.278}

$$$$
cand_016_out
     RDKit          3D

 35 37  0  0  0  0  0  0  0  0999 V2000
   73.4760   42.5480   -6.3180 C   0  0  0  0  0  0  0  0  0  0  0  0
   73.7930   42.3360   -4.8620 C   0  0  0  0  0  0  0  0  0  0  0  0
   72.9420   41.5210   -4.0920 C   0  0  0  0  0  0  0  0  0  0  0  0
   73.1880   41.2770   -2.7340 C   0  0  0  0  0  0  0  0  0  0  0  0
   72.3080   40.4050   -1.9280 C   0  0  0  0  0  0  0  0  0  0  0  0
   70.9680   40.7660   -2.0090 O   0  0  0  0  0  0  0  0  0  0  0  0
   70.0410   40.0370   -1.3090 C   0  0  0  0  0  0  0  0  0  0  0  0
   68.7100   40.4440   -1.4060 C   0  0  0  0  0  0  0  0  0  0  0  0
   67.7150   39.7450   -0.7180 C   0  0  0  0  0  0  0  0  0  0  0  0
   68.0520   38.6400    0.0660 C   0  0  0  0  0  0  0  0  0  0  0  0
   69.3810   38.2360    0.1620 C   0  0  0  0  0  0  0  0  0  0  0  0
   69.6400   37.1460    0.9460 O   0  0  0  0  0  0  0  0  0  0  0  0
   70.3760   38.9360   -0.5260 C   0  0  0  0  0  0  0  0  0  0  0  0
   71.7840   38.5450   -0.4520 C   0  0  0  0  0  0  0  0  0  0  0  0
   72.1590   37.5800    0.2100 O   0  0  0  0  0  0  0  0  0  0  0  0
   72.7620   39.3580   -1.2120 C   0  0  0  0  0  0  0  0  0  0  0  0
   74.0870   38.9730   -1.1470 O   0  0  0  0  0  0  0  0  0  0  0  0
   74.3250   41.8480   -2.1510 C   0  0  0  0  0  0  0  0  0  0  0  0
   75.1850   42.6520   -2.9030 C   0  0  0  0  0  0  0  0  0  0  0  0
   74.9380   42.9010   -4.2630 C   0  0  0  0  0  0  0  0  0  0  0  0
   75.8850   43.7890   -5.0370 C   0  0  0  0  0  0  0  0  0  0  0  0
   75.7310   45.1170   -4.7620 F   0  0  0  0  0  0  0  0  0  0  0  0
   77.1960   43.5180   -4.7890 F   0  0  0  0  0  0  0  0  0  0  0  0
   72.5648   43.1574   -6.4099 H   0  0  0  0  0  0  0  0  0  0  0  0
   74.3150   43.0674   -6.8041 H   0  0  0  0  0  0  0  0  0  0  0  0
   73.3165   41.5742   -6.8041 H   0  0  0  0  0  0  0  0  0  0  0  0
   72.0618   41.0642   -4.5680 H   0  0  0  0  0  0  0  0  0  0  0  0
   68.4442   41.3145   -2.0237 H   0  0  0  0  0  0  0  0  0  0  0  0
   66.6655   40.0655   -0.7941 H   0  0  0  0  0  0  0  0  0  0  0  0
   67.2686   38.0892    0.6072 H   0  0  0  0  0  0  0  0  0  0  0  0
   69.7890   37.2530    1.8650 H   0  0  0  0  0  0  0  0  0  0  0  0
   74.3110   38.0620   -1.1460 H   0  0  0  0  0  0  0  0  0  0  0  0
   74.5438   41.6617   -1.0892 H   0  0  0  0  0  0  0  0  0  0  0  0
   76.0690   43.0968   -2.4227 H   0  0  0  0  0  0  0  0  0  0  0  0
   75.6239   43.5713   -6.0832 H   0  0  0  0  0  0  0  0  0  0  0  0
  1  2  1  0
  2  3  2  0
  3  4  1  0
  4  5  1  0
  5  6  1  0
  6  7  1  0
  7  8  2  0
  8  9  1  0
  9 10  2  0
 10 11  1  0
 11 12  1  0
 11 13  2  0
 13 14  1  0
 14 15  2  0
 14 16  1  0
 16 17  1  0
  4 18  2  0
 18 19  1  0
 19 20  2  0
 20 21  1  0
 21 22  1  0
 21 23  1  0
 20  2  1  0
 16  5  2  0
 13  7  1  0
  1 24  1  0
  1 25  1  0
  1 26  1  0
  3 27  1  0
  8 28  1  0
  9 29  1  0
 10 30  1  0
 12 31  1  0
 17 32  1  0
 18 33  1  0
 19 34  1  0
 21 35  1  0
M  END
>  <meeko>  (9) 
{"is_sidechain": [false], "free_energy": -7.435, "intermolecular_energy": -8.948, "internal_energy": -0.253}

$$$$
