cand_033_out
     RDKit          3D

 44 46  0  0  0  0  0  0  0  0999 V2000
   72.1210   36.7680    0.4050 C   0  0  0  0  0  0  0  0  0  0  0  0
   70.6820   37.0660    0.7970 C   0  0  0  0  0  0  0  0  0  0  0  0
   70.5060   38.5310    1.1990 C   0  0  0  0  0  0  0  0  0  0  0  0
   70.3320   39.4260   -0.0080 C   0  0  0  0  0  0  0  0  0  0  0  0
   71.4690   40.1020   -0.4970 C   0  0  0  0  0  0  0  0  0  0  0  0
   71.4000   40.9680   -1.5970 C   0  0  0  0  0  0  0  0  0  0  0  0
   72.5980   41.6560   -2.1240 C   0  0  0  0  0  0  0  0  0  0  0  0
   72.3480   42.9760   -2.4820 O   0  0  0  0  0  0  0  0  0  0  0  0
   73.3750   43.7320   -2.9890 C   0  0  0  0  0  0  0  0  0  0  0  0
   73.0760   45.0460   -3.3490 C   0  0  0  0  0  0  0  0  0  0  0  0
   74.0760   45.8710   -3.8700 C   0  0  0  0  0  0  0  0  0  0  0  0
   75.3740   45.3810   -4.0290 C   0  0  0  0  0  0  0  0  0  0  0  0
   75.6690   44.0690   -3.6680 C   0  0  0  0  0  0  0  0  0  0  0  0
   76.9600   43.6540   -3.8490 O   0  0  0  0  0  0  0  0  0  0  0  0
   74.6680   43.2450   -3.1470 C   0  0  0  0  0  0  0  0  0  0  0  0
   74.9360   41.8590   -2.7560 C   0  0  0  0  0  0  0  0  0  0  0  0
   76.0540   41.3590   -2.8600 O   0  0  0  0  0  0  0  0  0  0  0  0
   73.8040   41.0670   -2.2230 C   0  0  0  0  0  0  0  0  0  0  0  0
   74.0710   39.7640   -1.8440 O   0  0  0  0  0  0  0  0  0  0  0  0
   70.1630   41.1440   -2.2240 C   0  0  0  0  0  0  0  0  0  0  0  0
   69.0240   40.4880   -1.7510 C   0  0  0  0  0  0  0  0  0  0  0  0
   69.0880   39.6330   -0.6380 C   0  0  0  0  0  0  0  0  0  0  0  0
   67.8140   38.9530   -0.1910 C   0  0  0  0  0  0  0  0  0  0  0  0
   66.6280   39.3400   -1.0610 C   0  0  0  0  0  0  0  0  0  0  0  0
   72.7297   36.6420    1.3125 H   0  0  0  0  0  0  0  0  0  0  0  0
   72.1549   35.8438   -0.1905 H   0  0  0  0  0  0  0  0  0  0  0  0
   72.5192   37.6027   -0.1905 H   0  0  0  0  0  0  0  0  0  0  0  0
   70.0255   36.8480   -0.0583 H   0  0  0  0  0  0  0  0  0  0  0  0
   70.4203   36.4360    1.6599 H   0  0  0  0  0  0  0  0  0  0  0  0
   69.6165   38.6203    1.8400 H   0  0  0  0  0  0  0  0  0  0  0  0
   71.4120   38.8505    1.7347 H   0  0  0  0  0  0  0  0  0  0  0  0
   72.4381   39.9451   -0.0008 H   0  0  0  0  0  0  0  0  0  0  0  0
   72.0538   45.4324   -3.2228 H   0  0  0  0  0  0  0  0  0  0  0  0
   73.8408   46.9070   -4.1551 H   0  0  0  0  0  0  0  0  0  0  0  0
   76.1618   46.0303   -4.4386 H   0  0  0  0  0  0  0  0  0  0  0  0
   77.3160   43.5930   -4.7140 H   0  0  0  0  0  0  0  0  0  0  0  0
   74.8790   39.3600   -2.0940 H   0  0  0  0  0  0  0  0  0  0  0  0
   70.0857   41.8060   -3.0991 H   0  0  0  0  0  0  0  0  0  0  0  0
   68.0606   40.6435   -2.2586 H   0  0  0  0  0  0  0  0  0  0  0  0
   67.9546   37.8634   -0.2459 H   0  0  0  0  0  0  0  0  0  0  0  0
   67.5999   39.2743    0.8390 H   0  0  0  0  0  0  0  0  0  0  0  0
   65.7781   39.6173   -0.4201 H   0  0  0  0  0  0  0  0  0  0  0  0
   66.9027   40.1951   -1.6961 H   0  0  0  0  0  0  0  0  0  0  0  0
   66.3454   38.4874   -1.6961 H   0  0  0  0  0  0  0  0  0  0  0  0
  1  2  1  0
  2  3  1  0
  3  4  1  0
  4  5  2  0
  5  6  1  0
  6  7  1  0
  7  8  1  0
  8  9  1  0
  9 10  2  0
 10 11  1  0
 11 12  2  0
 12 13  1  0
 13 14  1  0
 13 15  2  0
 15 16  1  0
 16 17  2  0
 16 18  1  0
 18 19  1  0
  6 20  2  0
 20 21  1  0
 21 22  2  0
 22 23  1  0
 23 24  1  0
 22  4  1  0
 18  7  2  0
 15  9  1  0
  1 25  1  0
  1 26  1  0
  1 27  1  0
  2 28  1  0
  2 29  1  0
  3 30  1  0
  3 31  1  0
  5 32  1  0
 10 33  1  0
 11 34  1  0
 12 35  1  0
 14 36  1  0
 19 37  1  0
 20 38  1  0
 21 39  1  0
 23 40  1  0
 23 41  1  0
 24 42  1  0
 24 43  1  0
 24 44  1  0
M  END
>  <meeko>  (1) 
{"is_sidechain": [false], "free_energy": -8.019, "intermolecular_energy": -10.363, "internal_energy": -0.343}

$$$$
cand_033_out
     RDKit          3D

 44 46  0  0  0  0  0  0  0  0999 V2000
   72.8760   38.5270   -1.8210 C   0  0  0  0  0  0  0  0  0  0  0  0
   73.2050   39.7150   -0.9330 C   0  0  0  0  0  0  0  0  0  0  0  0
   72.3480   39.7200    0.3350 C   0  0  0  0  0  0  0  0  0  0  0  0
   70.8720   39.6350    0.0120 C   0  0  0  0  0  0  0  0  0  0  0  0
   70.3170   40.6430   -0.8040 C   0  0  0  0  0  0  0  0  0  0  0  0
   68.9560   40.6590   -1.1380 C   0  0  0  0  0  0  0  0  0  0  0  0
   68.3810   41.7020   -2.0150 C   0  0  0  0  0  0  0  0  0  0  0  0
   67.5010   42.5440   -1.3450 O   0  0  0  0  0  0  0  0  0  0  0  0
   66.8930   43.5580   -2.0410 C   0  0  0  0  0  0  0  0  0  0  0  0
   66.0060   44.3700   -1.3330 C   0  0  0  0  0  0  0  0  0  0  0  0
   65.3540   45.4210   -1.9820 C   0  0  0  0  0  0  0  0  0  0  0  0
   65.5910   45.6610   -3.3370 C   0  0  0  0  0  0  0  0  0  0  0  0
   66.4770   44.8490   -4.0410 C   0  0  0  0  0  0  0  0  0  0  0  0
   66.6630   45.1400   -5.3650 O   0  0  0  0  0  0  0  0  0  0  0  0
   67.1280   43.7970   -3.3910 C   0  0  0  0  0  0  0  0  0  0  0  0
   68.0670   42.9200   -4.0940 C   0  0  0  0  0  0  0  0  0  0  0  0
   68.3310   43.0720   -5.2850 O   0  0  0  0  0  0  0  0  0  0  0  0
   68.6970   41.8290   -3.3160 C   0  0  0  0  0  0  0  0  0  0  0  0
   69.5920   41.0150   -3.9870 O   0  0  0  0  0  0  0  0  0  0  0  0
   68.1430   39.6320   -0.6520 C   0  0  0  0  0  0  0  0  0  0  0  0
   68.6730   38.6280    0.1630 C   0  0  0  0  0  0  0  0  0  0  0  0
   70.0340   38.6200    0.5130 C   0  0  0  0  0  0  0  0  0  0  0  0
   70.5340   37.4950    1.3910 C   0  0  0  0  0  0  0  0  0  0  0  0
   71.0570   36.3240    0.5730 C   0  0  0  0  0  0  0  0  0  0  0  0
   72.6348   37.6561   -1.1938 H   0  0  0  0  0  0  0  0  0  0  0  0
   72.0119   38.7721   -2.4561 H   0  0  0  0  0  0  0  0  0  0  0  0
   73.7431   38.2927   -2.4561 H   0  0  0  0  0  0  0  0  0  0  0  0
   74.2661   39.6651   -0.6474 H   0  0  0  0  0  0  0  0  0  0  0  0
   72.9947   40.6363   -1.4961 H   0  0  0  0  0  0  0  0  0  0  0  0
   72.6271   38.8572    0.9576 H   0  0  0  0  0  0  0  0  0  0  0  0
   72.5290   40.6650    0.8681 H   0  0  0  0  0  0  0  0  0  0  0  0
   70.9711   41.4391   -1.1891 H   0  0  0  0  0  0  0  0  0  0  0  0
   65.8205   44.1826   -0.2651 H   0  0  0  0  0  0  0  0  0  0  0  0
   64.6531   46.0603   -1.4251 H   0  0  0  0  0  0  0  0  0  0  0  0
   65.0789   46.4899   -3.8475 H   0  0  0  0  0  0  0  0  0  0  0  0
   67.4460   44.8660   -5.7990 H   0  0  0  0  0  0  0  0  0  0  0  0
   69.3440   40.1430   -4.2250 H   0  0  0  0  0  0  0  0  0  0  0  0
   67.0747   39.6134   -0.9135 H   0  0  0  0  0  0  0  0  0  0  0  0
   68.0138   37.8307    0.5368 H   0  0  0  0  0  0  0  0  0  0  0  0
   71.3469   37.8752    2.0271 H   0  0  0  0  0  0  0  0  0  0  0  0
   69.6895   37.1359    1.9975 H   0  0  0  0  0  0  0  0  0  0  0  0
   71.4105   35.5325    1.2502 H   0  0  0  0  0  0  0  0  0  0  0  0
   70.2493   35.9301   -0.0614 H   0  0  0  0  0  0  0  0  0  0  0  0
   71.8894   36.6626   -0.0614 H   0  0  0  0  0  0  0  0  0  0  0  0
  1  2  1  0
  2  3  1  0
  3  4  1  0
  4  5  2  0
  5  6  1  0
  6  7  1  0
  7  8  1  0
  8  9  1  0
  9 10  2  0
 10 11  1  0
 11 12  2  0
 12 13  1  0
 13 14  1  0
 13 15  2  0
 15 16  1  0
 16 17  2  0
 16 18  1  0
 18 19  1  0
  6 20  2  0
 20 21  1  0
 21 22  2  0
 22 23  1  0
 23 24  1  0
 22  4  1  0
 18  7  2  0
 15  9  1  0
  1 25  1  0
  1 26  1  0
  1 27  1  0
  2 28  1  0
  2 29  1  0
  3 30  1  0
  3 31  1  0
  5 32  1  0
 10 33  1  0
 11 34  1  0
 12 35  1  0
 14 36  1  0
 19 37  1  0
 20 38  1  0
 21 39  1  0
 23 40  1  0
 23 41  1  0
 24 42  1  0
 24 43  1  0
 24 44  1  0
M  END
>  <meeko>  (2) 
{"is_sidechain": [false], "free_energy": -7.997, "intermolecular_energy": -9.848, "internal_energy": -0.83}

$$$$
cand_033_out
     RDKit          3D

 44 46  0  0  0  0  0  0  0  0999 V2000
   66.7910   39.3890   -1.4560 C   0  0  0  0  0  0  0  0  0  0  0  0
   68.1280   40.1120   -1.4370 C   0  0  0  0  0  0  0  0  0  0  0  0
   68.9680   39.6990   -0.2270 C   0  0  0  0  0  0  0  0  0  0  0  0
   70.3760   39.3170   -0.6280 C   0  0  0  0  0  0  0  0  0  0  0  0
   71.0910   40.2070   -1.4560 C   0  0  0  0  0  0  0  0  0  0  0  0
   72.3920   39.9280   -1.8960 C   0  0  0  0  0  0  0  0  0  0  0  0
   73.1490   40.8740   -2.7420 C   0  0  0  0  0  0  0  0  0  0  0  0
   74.1840   41.5010   -2.0580 O   0  0  0  0  0  0  0  0  0  0  0  0
   74.9690   42.4070   -2.7250 C   0  0  0  0  0  0  0  0  0  0  0  0
   75.9860   43.0220   -1.9960 C   0  0  0  0  0  0  0  0  0  0  0  0
   76.8220   43.9540   -2.6160 C   0  0  0  0  0  0  0  0  0  0  0  0
   76.6410   44.2680   -3.9650 C   0  0  0  0  0  0  0  0  0  0  0  0
   75.6250   43.6510   -4.6900 C   0  0  0  0  0  0  0  0  0  0  0  0
   75.5030   44.0050   -6.0060 O   0  0  0  0  0  0  0  0  0  0  0  0
   74.7890   42.7200   -4.0690 C   0  0  0  0  0  0  0  0  0  0  0  0
   73.7080   42.0490   -4.7950 C   0  0  0  0  0  0  0  0  0  0  0  0
   73.4910   42.2690   -5.9850 O   0  0  0  0  0  0  0  0  0  0  0  0
   72.8730   41.0850   -4.0420 C   0  0  0  0  0  0  0  0  0  0  0  0
   71.8640   40.4480   -4.7410 O   0  0  0  0  0  0  0  0  0  0  0  0
   72.9890   38.7340   -1.4800 C   0  0  0  0  0  0  0  0  0  0  0  0
   72.2950   37.8360   -0.6640 C   0  0  0  0  0  0  0  0  0  0  0  0
   70.9840   38.1070   -0.2370 C   0  0  0  0  0  0  0  0  0  0  0  0
   70.3020   37.0910    0.6510 C   0  0  0  0  0  0  0  0  0  0  0  0
   71.2980   36.3360    1.5190 C   0  0  0  0  0  0  0  0  0  0  0  0
   66.4571   39.2084   -0.4236 H   0  0  0  0  0  0  0  0  0  0  0  0
   66.0470   40.0077   -1.9791 H   0  0  0  0  0  0  0  0  0  0  0  0
   66.9014   38.4277   -1.9791 H   0  0  0  0  0  0  0  0  0  0  0  0
   68.6802   39.8676   -2.3564 H   0  0  0  0  0  0  0  0  0  0  0  0
   67.9363   41.1933   -1.3729 H   0  0  0  0  0  0  0  0  0  0  0  0
   69.0144   40.5412    0.4791 H   0  0  0  0  0  0  0  0  0  0  0  0
   68.4934   38.8218    0.2369 H   0  0  0  0  0  0  0  0  0  0  0  0
   70.6133   41.1482   -1.7657 H   0  0  0  0  0  0  0  0  0  0  0  0
   76.1300   42.7737   -0.9341 H   0  0  0  0  0  0  0  0  0  0  0  0
   77.6235   44.4410   -2.0413 H   0  0  0  0  0  0  0  0  0  0  0  0
   77.2997   45.0011   -4.4535 H   0  0  0  0  0  0  0  0  0  0  0  0
   75.7970   43.4210   -6.6770 H   0  0  0  0  0  0  0  0  0  0  0  0
   71.4580   39.6830   -4.3840 H   0  0  0  0  0  0  0  0  0  0  0  0
   74.0154   38.4989   -1.7982 H   0  0  0  0  0  0  0  0  0  0  0  0
   72.7834   36.9014   -0.3508 H   0  0  0  0  0  0  0  0  0  0  0  0
   69.5859   37.6125    1.3031 H   0  0  0  0  0  0  0  0  0  0  0  0
   69.7918   36.3616    0.0047 H   0  0  0  0  0  0  0  0  0  0  0  0
   71.0665   36.5114    2.5800 H   0  0  0  0  0  0  0  0  0  0  0  0
   71.2312   35.2596    1.3023 H   0  0  0  0  0  0  0  0  0  0  0  0
   72.3163   36.6911    1.3023 H   0  0  0  0  0  0  0  0  0  0  0  0
  1  2  1  0
  2  3  1  0
  3  4  1  0
  4  5  2  0
  5  6  1  0
  6  7  1  0
  7  8  1  0
  8  9  1  0
  9 10  2  0
 10 11  1  0
 11 12  2  0
 12 13  1  0
 13 14  1  0
 13 15  2  0
 15 16  1  0
 16 17  2  0
 16 18  1  0
 18 19  1  0
  6 20  2  0
 20 21  1  0
 21 22  2  0
 22 23  1  0
 23 24  1  0
 22  4  1  0
 18  7  2  0
 15  9  1  0
  1 25  1  0
  1 26  1  0
  1 27  1  0
  2 28  1  0
  2 29  1  0
  3 30  1  0
  3 31  1  0
  5 32  1  0
 10 33  1  0
 11 34  1  0
 12 35  1  0
 14 36  1  0
 19 37  1  0
 20 38  1  0
 21 39  1  0
 23 40  1  0
 23 41  1  0
 24 42  1  0
 24 43  1  0
 24 44  1  0
M  END
>  <meeko>  (3) 
{"is_sidechain": [false], "free_energy": -7.884, "intermolecular_energy": -9.811, "internal_energy": -0.72}

$$$$
cand_033_out
     RDKit          3D

 44 46  0  0  0  0  0  0  0  0999 V2000
   71.7060   36.6520    1.1360 C   0  0  0  0  0  0  0  0  0  0  0  0
   72.6280   37.4420    0.2230 C   0  0  0  0  0  0  0  0  0  0  0  0
   71.9690   37.7220   -1.1290 C   0  0  0  0  0  0  0  0  0  0  0  0
   71.9700   39.1990   -1.4580 C   0  0  0  0  0  0  0  0  0  0  0  0
   72.9490   39.6740   -2.3540 C   0  0  0  0  0  0  0  0  0  0  0  0
   73.0420   41.0290   -2.7010 C   0  0  0  0  0  0  0  0  0  0  0  0
   74.0530   41.5210   -3.6610 C   0  0  0  0  0  0  0  0  0  0  0  0
   73.4960   41.9310   -4.8680 O   0  0  0  0  0  0  0  0  0  0  0  0
   74.3240   42.4100   -5.8510 C   0  0  0  0  0  0  0  0  0  0  0  0
   73.7240   42.7960   -7.0510 C   0  0  0  0  0  0  0  0  0  0  0  0
   74.5100   43.2940   -8.0930 C   0  0  0  0  0  0  0  0  0  0  0  0
   75.8930   43.4070   -7.9350 C   0  0  0  0  0  0  0  0  0  0  0  0
   76.4870   43.0220   -6.7360 C   0  0  0  0  0  0  0  0  0  0  0  0
   77.8460   43.1590   -6.6490 O   0  0  0  0  0  0  0  0  0  0  0  0
   75.7010   42.5230   -5.6940 C   0  0  0  0  0  0  0  0  0  0  0  0
   76.2870   42.1060   -4.4180 C   0  0  0  0  0  0  0  0  0  0  0  0
   77.4940   42.1820   -4.2020 O   0  0  0  0  0  0  0  0  0  0  0  0
   75.3680   41.5840   -3.3820 C   0  0  0  0  0  0  0  0  0  0  0  0
   75.9300   41.2050   -2.1760 O   0  0  0  0  0  0  0  0  0  0  0  0
   72.1190   41.9190   -2.1440 C   0  0  0  0  0  0  0  0  0  0  0  0
   71.1450   41.4690   -1.2490 C   0  0  0  0  0  0  0  0  0  0  0  0
   71.0620   40.1130   -0.8870 C   0  0  0  0  0  0  0  0  0  0  0  0
   69.9760   39.7020    0.0800 C   0  0  0  0  0  0  0  0  0  0  0  0
   68.6650   39.4020   -0.6320 C   0  0  0  0  0  0  0  0  0  0  0  0
   71.9568   36.8669    2.1853 H   0  0  0  0  0  0  0  0  0  0  0  0
   70.6624   36.9406    0.9419 H   0  0  0  0  0  0  0  0  0  0  0  0
   71.8312   35.5765    0.9419 H   0  0  0  0  0  0  0  0  0  0  0  0
   72.8755   38.3990    0.7055 H   0  0  0  0  0  0  0  0  0  0  0  0
   73.5362   36.8463    0.0487 H   0  0  0  0  0  0  0  0  0  0  0  0
   72.5204   37.1820   -1.9128 H   0  0  0  0  0  0  0  0  0  0  0  0
   70.9237   37.3834   -1.0772 H   0  0  0  0  0  0  0  0  0  0  0  0
   73.6611   38.9603   -2.7940 H   0  0  0  0  0  0  0  0  0  0  0  0
   72.6346   42.7082   -7.1758 H   0  0  0  0  0  0  0  0  0  0  0  0
   74.0388   43.5976   -9.0395 H   0  0  0  0  0  0  0  0  0  0  0  0
   76.5115   43.7992   -8.7558 H   0  0  0  0  0  0  0  0  0  0  0  0
   78.3730   42.4370   -6.3700 H   0  0  0  0  0  0  0  0  0  0  0  0
   76.3590   41.8420   -1.6390 H   0  0  0  0  0  0  0  0  0  0  0  0
   72.1600   42.9848   -2.4132 H   0  0  0  0  0  0  0  0  0  0  0  0
   70.4311   42.1878   -0.8204 H   0  0  0  0  0  0  0  0  0  0  0  0
   70.3024   38.8002    0.6188 H   0  0  0  0  0  0  0  0  0  0  0  0
   69.8033   40.5381    0.7736 H   0  0  0  0  0  0  0  0  0  0  0  0
   67.8761   39.2215    0.1130 H   0  0  0  0  0  0  0  0  0  0  0  0
   68.3853   40.2593   -1.2618 H   0  0  0  0  0  0  0  0  0  0  0  0
   68.7860   38.5083   -1.2618 H   0  0  0  0  0  0  0  0  0  0  0  0
  1  2  1  0
  2  3  1  0
  3  4  1  0
  4  5  2  0
  5  6  1  0
  6  7  1  0
  7  8  1  0
  8  9  1  0
  9 10  2  0
 10 11  1  0
 11 12  2  0
 12 13  1  0
 13 14  1  0
 13 15  2  0
 15 16  1  0
 16 17  2  0
 16 18  1  0
 18 19  1  0
  6 20  2  0
 20 21  1  0
 21 22  2  0
 22 23  1  0
 23 24  1  0
 22  4  1  0
 18  7  2  0
 15  9  1  0
  1 25  1  0
  1 26  1  0
  1 27  1  0
  2 28  1  0
  2 29  1  0
  3 30  1  0
  3 31  1  0
  5 32  1  0
 10 33  1  0
 11 34  1  0
 12 35  1  0
 14 36  1  0
 19 37  1  0
 20 38  1  0
 21 39  1  0
 23 40  1  0
 23 41  1  0
 24 42  1  0
 24 43  1  0
 24 44  1  0
M  END
>  <meeko>  (4) 
{"is_sidechain": [false], "free_energy": -7.793, "intermolecular_energy": -9.688, "internal_energy": -0.725}

$$$$
cand_033_out
     RDKit          3D

 44 46  0  0  0  0  0  0  0  0999 V2000
   77.1050   43.1610   -3.4920 C   0  0  0  0  0  0  0  0  0  0  0  0
   76.1160   43.6710   -2.4560 C   0  0  0  0  0  0  0  0  0  0  0  0
   74.9110   44.3430   -3.1190 C   0  0  0  0  0  0  0  0  0  0  0  0
   73.9630   43.3280   -3.7180 C   0  0  0  0  0  0  0  0  0  0  0  0
   73.2670   42.4750   -2.8370 C   0  0  0  0  0  0  0  0  0  0  0  0
   72.3850   41.4900   -3.3010 C   0  0  0  0  0  0  0  0  0  0  0  0
   71.6360   40.6150   -2.3740 C   0  0  0  0  0  0  0  0  0  0  0  0
   72.4160   39.5890   -1.8520 O   0  0  0  0  0  0  0  0  0  0  0  0
   71.8460   38.7000   -0.9780 C   0  0  0  0  0  0  0  0  0  0  0  0
   72.6610   37.6780   -0.4910 C   0  0  0  0  0  0  0  0  0  0  0  0
   72.1420   36.7400    0.4050 C   0  0  0  0  0  0  0  0  0  0  0  0
   70.8100   36.8250    0.8140 C   0  0  0  0  0  0  0  0  0  0  0  0
   69.9990   37.8460    0.3260 C   0  0  0  0  0  0  0  0  0  0  0  0
   68.7040   37.8710    0.7680 O   0  0  0  0  0  0  0  0  0  0  0  0
   70.5180   38.7840   -0.5700 C   0  0  0  0  0  0  0  0  0  0  0  0
   69.7000   39.8730   -1.1070 C   0  0  0  0  0  0  0  0  0  0  0  0
   68.5210   40.0170   -0.7890 O   0  0  0  0  0  0  0  0  0  0  0  0
   70.3430   40.8090   -2.0570 C   0  0  0  0  0  0  0  0  0  0  0  0
   69.5640   41.8410   -2.5480 O   0  0  0  0  0  0  0  0  0  0  0  0
   72.1900   41.3730   -4.6800 C   0  0  0  0  0  0  0  0  0  0  0  0
   72.8750   42.2040   -5.5700 C   0  0  0  0  0  0  0  0  0  0  0  0
   73.7730   43.1810   -5.1060 C   0  0  0  0  0  0  0  0  0  0  0  0
   74.4700   44.0480   -6.1310 C   0  0  0  0  0  0  0  0  0  0  0  0
   75.0590   43.2240   -7.2660 C   0  0  0  0  0  0  0  0  0  0  0  0
   77.9716   42.7141   -2.9828 H   0  0  0  0  0  0  0  0  0  0  0  0
   76.6178   42.4017   -4.1214 H   0  0  0  0  0  0  0  0  0  0  0  0
   77.4411   43.9982   -4.1214 H   0  0  0  0  0  0  0  0  0  0  0  0
   75.7644   42.8237   -1.8490 H   0  0  0  0  0  0  0  0  0  0  0  0
   76.6258   44.4159   -1.8273 H   0  0  0  0  0  0  0  0  0  0  0  0
   74.3711   44.9323   -2.3632 H   0  0  0  0  0  0  0  0  0  0  0  0
   75.2813   44.9866   -3.9306 H   0  0  0  0  0  0  0  0  0  0  0  0
   73.4210   42.5861   -1.7535 H   0  0  0  0  0  0  0  0  0  0  0  0
   73.7110   37.6107   -0.8120 H   0  0  0  0  0  0  0  0  0  0  0  0
   72.7839   35.9333    0.7887 H   0  0  0  0  0  0  0  0  0  0  0  0
   70.4021   36.0869    1.5203 H   0  0  0  0  0  0  0  0  0  0  0  0
   68.0270   37.4710    0.2580 H   0  0  0  0  0  0  0  0  0  0  0  0
   69.1240   42.4180   -1.9550 H   0  0  0  0  0  0  0  0  0  0  0  0
   71.4899   40.6188   -5.0686 H   0  0  0  0  0  0  0  0  0  0  0  0
   72.7089   42.0920   -6.6516 H   0  0  0  0  0  0  0  0  0  0  0  0
   73.7423   44.7594   -6.5487 H   0  0  0  0  0  0  0  0  0  0  0  0
   75.2951   44.5735   -5.6279 H   0  0  0  0  0  0  0  0  0  0  0  0
   75.6509   42.3959   -6.8491 H   0  0  0  0  0  0  0  0  0  0  0  0
   74.2453   42.8179   -7.8848 H   0  0  0  0  0  0  0  0  0  0  0  0
   75.7067   43.8624   -7.8848 H   0  0  0  0  0  0  0  0  0  0  0  0
  1  2  1  0
  2  3  1  0
  3  4  1  0
  4  5  2  0
  5  6  1  0
  6  7  1  0
  7  8  1  0
  8  9  1  0
  9 10  2  0
 10 11  1  0
 11 12  2  0
 12 13  1  0
 13 14  1  0
 13 15  2  0
 15 16  1  0
 16 17  2  0
 16 18  1  0
 18 19  1  0
  6 20  2  0
 20 21  1  0
 21 22  2  0
 22 23  1  0
 23 24  1  0
 22  4  1  0
 18  7  2  0
 15  9  1  0
  1 25  1  0
  1 26  1  0
  1 27  1  0
  2 28  1  0
  2 29  1  0
  3 30  1  0
  3 31  1  0
  5 32  1  0
 10 33  1  0
 11 34  1  0
 12 35  1  0
 14 36  1  0
 19 37  1  0
 20 38  1  0
 21 39  1  0
 23 40  1  0
 23 41  1  0
 24 42  1  0
 24 43  1  0
 24 44  1  0
M  END
>  <meeko>  (5) 
{"is_sidechain": [false], "free_energy": -7.715, "intermolecular_energy": -9.376, "internal_energy": -0.938}

$$$$
cand_033_out
     RDKit          3D

 44 46  0  0  0  0  0  0  0  0999 V2000
   68.1670   41.9230   -2.1170 C   0  0  0  0  0  0  0  0  0  0  0  0
   69.2460   42.8660   -1.6100 C   0  0  0  0  0  0  0  0  0  0  0  0
   70.1490   42.1820   -0.5820 C   0  0  0  0  0  0  0  0  0  0  0  0
   71.1040   41.2070   -1.2350 C   0  0  0  0  0  0  0  0  0  0  0  0
   72.0640   41.7250   -2.1290 C   0  0  0  0  0  0  0  0  0  0  0  0
   72.9760   40.8970   -2.7980 C   0  0  0  0  0  0  0  0  0  0  0  0
   73.9980   41.4440   -3.7150 C   0  0  0  0  0  0  0  0  0  0  0  0
   73.4620   41.8880   -4.9180 O   0  0  0  0  0  0  0  0  0  0  0  0
   74.3010   42.4190   -5.8640 C   0  0  0  0  0  0  0  0  0  0  0  0
   73.7220   42.8380   -7.0620 C   0  0  0  0  0  0  0  0  0  0  0  0
   74.5210   43.3900   -8.0660 C   0  0  0  0  0  0  0  0  0  0  0  0
   75.8980   43.5230   -7.8710 C   0  0  0  0  0  0  0  0  0  0  0  0
   76.4720   43.1050   -6.6740 C   0  0  0  0  0  0  0  0  0  0  0  0
   77.8250   43.2650   -6.5490 O   0  0  0  0  0  0  0  0  0  0  0  0
   75.6730   42.5520   -5.6700 C   0  0  0  0  0  0  0  0  0  0  0  0
   76.2370   42.0990   -4.3970 C   0  0  0  0  0  0  0  0  0  0  0  0
   77.4380   42.1900   -4.1490 O   0  0  0  0  0  0  0  0  0  0  0  0
   75.3050   41.5210   -3.4020 C   0  0  0  0  0  0  0  0  0  0  0  0
   75.8470   41.1080   -2.1990 O   0  0  0  0  0  0  0  0  0  0  0  0
   72.9270   39.5220   -2.5490 C   0  0  0  0  0  0  0  0  0  0  0  0
   71.9790   38.9900   -1.6710 C   0  0  0  0  0  0  0  0  0  0  0  0
   71.0530   39.8170   -1.0130 C   0  0  0  0  0  0  0  0  0  0  0  0
   70.0640   39.1670   -0.0720 C   0  0  0  0  0  0  0  0  0  0  0  0
   70.5150   37.7790    0.3570 C   0  0  0  0  0  0  0  0  0  0  0  0
   67.6463   41.4679   -1.2616 H   0  0  0  0  0  0  0  0  0  0  0  0
   67.4459   42.4856   -2.7282 H   0  0  0  0  0  0  0  0  0  0  0  0
   68.6280   41.1331   -2.7282 H   0  0  0  0  0  0  0  0  0  0  0  0
   69.8597   43.1976   -2.4606 H   0  0  0  0  0  0  0  0  0  0  0  0
   68.7559   43.7225   -1.1239 H   0  0  0  0  0  0  0  0  0  0  0  0
   70.7313   42.9503   -0.0522 H   0  0  0  0  0  0  0  0  0  0  0  0
   69.5098   41.6203    0.1151 H   0  0  0  0  0  0  0  0  0  0  0  0
   72.0980   42.8101   -2.3064 H   0  0  0  0  0  0  0  0  0  0  0  0
   72.6378   42.7339   -7.2158 H   0  0  0  0  0  0  0  0  0  0  0  0
   74.0655   43.7203   -9.0112 H   0  0  0  0  0  0  0  0  0  0  0  0
   76.5272   43.9572   -8.6619 H   0  0  0  0  0  0  0  0  0  0  0  0
   78.1690   43.9580   -6.0200 H   0  0  0  0  0  0  0  0  0  0  0  0
   75.6780   40.2430   -1.8810 H   0  0  0  0  0  0  0  0  0  0  0  0
   73.6420   38.8523   -3.0493 H   0  0  0  0  0  0  0  0  0  0  0  0
   71.9573   37.9049   -1.4918 H   0  0  0  0  0  0  0  0  0  0  0  0
   69.9570   39.7982    0.8225 H   0  0  0  0  0  0  0  0  0  0  0  0
   69.1060   39.0646   -0.6028 H   0  0  0  0  0  0  0  0  0  0  0  0
   70.5333   37.7226    1.4554 H   0  0  0  0  0  0  0  0  0  0  0  0
   69.8147   37.0278   -0.0371 H   0  0  0  0  0  0  0  0  0  0  0  0
   71.5231   37.5829   -0.0371 H   0  0  0  0  0  0  0  0  0  0  0  0
  1  2  1  0
  2  3  1  0
  3  4  1  0
  4  5  2  0
  5  6  1  0
  6  7  1  0
  7  8  1  0
  8  9  1  0
  9 10  2  0
 10 11  1  0
 11 12  2  0
 12 13  1  0
 13 14  1  0
 13 15  2  0
 15 16  1  0
 16 17  2  0
 16 18  1  0
 18 19  1  0
  6 20  2  0
 20 21  1  0
 21 22  2  0
 22 23  1  0
 23 24  1  0
 22  4  1  0
 18  7  2  0
 15  9  1  0
  1 25  1  0
  1 26  1  0
  1 27  1  0
  2 28  1  0
  2 29  1  0
  3 30  1  0
  3 31  1  0
  5 32  1  0
 10 33  1  0
 11 34  1  0
 12 35  1  0
 14 36  1  0
 19 37  1  0
 20 38  1  0
 21 39  1  0
 23 40  1  0
 23 41  1  0
 24 42  1  0
 24 43  1  0
 24 44  1  0
M  END
>  <meeko>  (6) 
{"is_sidechain": [false], "free_energy": -7.708, "intermolecular_energy": -9.461, "internal_energy": -0.843}

$$$$
cand_033_out
     RDKit          3D

 44 46  0  0  0  0  0  0  0  0999 V2000
   76.8440   44.4800   -4.1940 C   0  0  0  0  0  0  0  0  0  0  0  0
   76.0570   44.8740   -2.9550 C   0  0  0  0  0  0  0  0  0  0  0  0
   74.6440   45.3390   -3.3150 C   0  0  0  0  0  0  0  0  0  0  0  0
   73.7920   44.1970   -3.8230 C   0  0  0  0  0  0  0  0  0  0  0  0
   73.4590   43.1690   -2.9170 C   0  0  0  0  0  0  0  0  0  0  0  0
   72.6930   42.0610   -3.3030 C   0  0  0  0  0  0  0  0  0  0  0  0
   72.3240   40.9960   -2.3450 C   0  0  0  0  0  0  0  0  0  0  0  0
   70.9570   40.9480   -2.0920 O   0  0  0  0  0  0  0  0  0  0  0  0
   70.4770   40.0060   -1.2190 C   0  0  0  0  0  0  0  0  0  0  0  0
   69.1020   40.0040   -0.9830 C   0  0  0  0  0  0  0  0  0  0  0  0
   68.5470   39.0690   -0.1050 C   0  0  0  0  0  0  0  0  0  0  0  0
   69.3670   38.1370    0.5340 C   0  0  0  0  0  0  0  0  0  0  0  0
   70.7390   38.1420    0.2960 C   0  0  0  0  0  0  0  0  0  0  0  0
   71.4830   37.2020    0.9550 O   0  0  0  0  0  0  0  0  0  0  0  0
   71.2930   39.0770   -0.5810 C   0  0  0  0  0  0  0  0  0  0  0  0
   72.7300   39.1170   -0.8590 C   0  0  0  0  0  0  0  0  0  0  0  0
   73.5150   38.3260   -0.3390 O   0  0  0  0  0  0  0  0  0  0  0  0
   73.2180   40.1530   -1.7970 C   0  0  0  0  0  0  0  0  0  0  0  0
   74.5750   40.1730   -2.0620 O   0  0  0  0  0  0  0  0  0  0  0  0
   72.2390   41.9970   -4.6240 C   0  0  0  0  0  0  0  0  0  0  0  0
   72.5630   43.0030   -5.5380 C   0  0  0  0  0  0  0  0  0  0  0  0
   73.3460   44.1050   -5.1570 C   0  0  0  0  0  0  0  0  0  0  0  0
   73.6470   45.1570   -6.2010 C   0  0  0  0  0  0  0  0  0  0  0  0
   74.6270   44.6540   -7.2500 C   0  0  0  0  0  0  0  0  0  0  0  0
   77.7899   44.0064   -3.8923 H   0  0  0  0  0  0  0  0  0  0  0  0
   76.2538   43.7711   -4.7932 H   0  0  0  0  0  0  0  0  0  0  0  0
   77.0579   45.3773   -4.7932 H   0  0  0  0  0  0  0  0  0  0  0  0
   75.9877   44.0052   -2.2838 H   0  0  0  0  0  0  0  0  0  0  0  0
   76.5805   45.7069   -2.4629 H   0  0  0  0  0  0  0  0  0  0  0  0
   74.1701   45.7662   -2.4190 H   0  0  0  0  0  0  0  0  0  0  0  0
   74.7233   46.0900   -4.1148 H   0  0  0  0  0  0  0  0  0  0  0  0
   73.8108   43.2389   -1.8771 H   0  0  0  0  0  0  0  0  0  0  0  0
   68.4556   40.7374   -1.4873 H   0  0  0  0  0  0  0  0  0  0  0  0
   67.4631   39.0673    0.0828 H   0  0  0  0  0  0  0  0  0  0  0  0
   68.9301   37.4002    1.2241 H   0  0  0  0  0  0  0  0  0  0  0  0
   72.3770   37.0580    0.7140 H   0  0  0  0  0  0  0  0  0  0  0  0
   74.9620   39.4920   -2.5760 H   0  0  0  0  0  0  0  0  0  0  0  0
   71.6207   41.1464   -4.9468 H   0  0  0  0  0  0  0  0  0  0  0  0
   72.1987   42.9307   -6.5734 H   0  0  0  0  0  0  0  0  0  0  0  0
   72.7085   45.4418   -6.6992 H   0  0  0  0  0  0  0  0  0  0  0  0
   74.1050   46.0186   -5.6932 H   0  0  0  0  0  0  0  0  0  0  0  0
   75.4995   44.2062   -6.7518 H   0  0  0  0  0  0  0  0  0  0  0  0
   74.1350   43.8970   -7.8784 H   0  0  0  0  0  0  0  0  0  0  0  0
   74.9552   45.4951   -7.8784 H   0  0  0  0  0  0  0  0  0  0  0  0
  1  2  1  0
  2  3  1  0
  3  4  1  0
  4  5  2  0
  5  6  1  0
  6  7  1  0
  7  8  1  0
  8  9  1  0
  9 10  2  0
 10 11  1  0
 11 12  2  0
 12 13  1  0
 13 14  1  0
 13 15  2  0
 15 16  1  0
 16 17  2  0
 16 18  1  0
 18 19  1  0
  6 20  2  0
 20 21  1  0
 21 22  2  0
 22 23  1  0
 23 24  1  0
 22  4  1  0
 18  7  2  0
 15  9  1  0
  1 25  1  0
  1 26  1  0
  1 27  1  0
  2 28  1  0
  2 29  1  0
  3 30  1  0
  3 31  1  0
  5 32  1  0
 10 33  1  0
 11 34  1  0
 12 35  1  0
 14 36  1  0
 19 37  1  0
 20 38  1  0
 21 39  1  0
 23 40  1  0
 23 41  1  0
 24 42  1  0
 24 43  1  0
 24 44  1  0
M  END
>  <meeko>  (7) 
{"is_sidechain": [false], "free_energy": -7.553, "intermolecular_energy": -9.173, "internal_energy": -0.93}

$$$$
cand_033_out
     RDKit          3D

 44 46  0  0  0  0  0  0  0  0999 V2000
   73.4480   47.4280   -2.9540 C   0  0  0  0  0  0  0  0  0  0  0  0
   73.5470   46.0700   -3.6290 C   0  0  0  0  0  0  0  0  0  0  0  0
   74.8770   45.3830   -3.3100 C   0  0  0  0  0  0  0  0  0  0  0  0
   74.6900   43.9120   -3.0120 C   0  0  0  0  0  0  0  0  0  0  0  0
   73.3720   43.4270   -2.8870 C   0  0  0  0  0  0  0  0  0  0  0  0
   73.1010   42.0840   -2.5920 C   0  0  0  0  0  0  0  0  0  0  0  0
   71.7190   41.5720   -2.4870 C   0  0  0  0  0  0  0  0  0  0  0  0
   71.5090   40.8140   -1.3400 O   0  0  0  0  0  0  0  0  0  0  0  0
   70.2680   40.2760   -1.1170 C   0  0  0  0  0  0  0  0  0  0  0  0
   70.1070   39.5110    0.0390 C   0  0  0  0  0  0  0  0  0  0  0  0
   68.8670   38.9350    0.3260 C   0  0  0  0  0  0  0  0  0  0  0  0
   67.7890   39.1250   -0.5420 C   0  0  0  0  0  0  0  0  0  0  0  0
   67.9530   39.8900   -1.6940 C   0  0  0  0  0  0  0  0  0  0  0  0
   66.8570   40.0360   -2.4990 O   0  0  0  0  0  0  0  0  0  0  0  0
   69.1930   40.4650   -1.9810 C   0  0  0  0  0  0  0  0  0  0  0  0
   69.4090   41.2750   -3.1810 C   0  0  0  0  0  0  0  0  0  0  0  0
   68.5070   41.4930   -3.9890 O   0  0  0  0  0  0  0  0  0  0  0  0
   70.7630   41.8320   -3.3980 C   0  0  0  0  0  0  0  0  0  0  0  0
   70.9510   42.6070   -4.5280 O   0  0  0  0  0  0  0  0  0  0  0  0
   74.1810   41.2100   -2.4340 C   0  0  0  0  0  0  0  0  0  0  0  0
   75.4950   41.6730   -2.5480 C   0  0  0  0  0  0  0  0  0  0  0  0
   75.7670   43.0230   -2.8270 C   0  0  0  0  0  0  0  0  0  0  0  0
   77.2150   43.4460   -2.9430 C   0  0  0  0  0  0  0  0  0  0  0  0
   77.7530   43.2490   -4.3530 C   0  0  0  0  0  0  0  0  0  0  0  0
   73.4576   47.2962   -1.8620 H   0  0  0  0  0  0  0  0  0  0  0  0
   74.3031   48.0507   -3.2557 H   0  0  0  0  0  0  0  0  0  0  0  0
   72.5116   47.9201   -3.2557 H   0  0  0  0  0  0  0  0  0  0  0  0
   72.7220   45.4339   -3.2759 H   0  0  0  0  0  0  0  0  0  0  0  0
   73.4869   46.2193   -4.7172 H   0  0  0  0  0  0  0  0  0  0  0  0
   75.5491   45.4889   -4.1743 H   0  0  0  0  0  0  0  0  0  0  0  0
   75.3045   45.8620   -2.4168 H   0  0  0  0  0  0  0  0  0  0  0  0
   72.5317   44.1233   -3.0251 H   0  0  0  0  0  0  0  0  0  0  0  0
   70.9552   39.3617    0.7233 H   0  0  0  0  0  0  0  0  0  0  0  0
   68.7393   38.3311    1.2365 H   0  0  0  0  0  0  0  0  0  0  0  0
   66.8127   38.6713   -0.3160 H   0  0  0  0  0  0  0  0  0  0  0  0
   66.3500   40.8230   -2.4630 H   0  0  0  0  0  0  0  0  0  0  0  0
   70.2170   42.8480   -5.0580 H   0  0  0  0  0  0  0  0  0  0  0  0
   73.9947   40.1476   -2.2179 H   0  0  0  0  0  0  0  0  0  0  0  0
   76.3299   40.9688   -2.4171 H   0  0  0  0  0  0  0  0  0  0  0  0
   77.2970   44.5101   -2.6766 H   0  0  0  0  0  0  0  0  0  0  0  0
   77.8087   42.8194   -2.2611 H   0  0  0  0  0  0  0  0  0  0  0  0
   78.7848   42.8712   -4.3023 H   0  0  0  0  0  0  0  0  0  0  0  0
   77.1227   42.5233   -4.8879 H   0  0  0  0  0  0  0  0  0  0  0  0
   77.7403   44.2101   -4.8879 H   0  0  0  0  0  0  0  0  0  0  0  0
  1  2  1  0
  2  3  1  0
  3  4  1  0
  4  5  2  0
  5  6  1  0
  6  7  1  0
  7  8  1  0
  8  9  1  0
  9 10  2  0
 10 11  1  0
 11 12  2  0
 12 13  1  0
 13 14  1  0
 13 15  2  0
 15 16  1  0
 16 17  2  0
 16 18  1  0
 18 19  1  0
  6 20  2  0
 20 21  1  0
 21 22  2  0
 22 23  1  0
 23 24  1  0
 22  4  1  0
 18  7  2  0
 15  9  1  0
  1 25  1  0
  1 26  1  0
  1 27  1  0
  2 28  1  0
  2 29  1  0
  3 30  1  0
  3 31  1  0
  5 32  1  0
 10 33  1  0
 11 34  1  0
 12 35  1  0
 14 36  1  0
 19 37  1  0
 20 38  1  0
 21 39  1  0
 23 40  1  0
 23 41  1  0
 24 42  1  0
 24 43  1  0
 24 44  1  0
M  END
>  <meeko>  (8) 
{"is_sidechain": [false], "free_energy": -7.535, "intermolecular_energy": -9.601, "internal_energy": -0.48}

$$$$
cand_033_out
     RDKit          3D

 44 46  0  0  0  0  0  0  0  0999 V2000
   74.6670   43.2930   -8.0500 C   0  0  0  0  0  0  0  0  0  0  0  0
   73.8940   42.5890   -6.9470 C   0  0  0  0  0  0  0  0  0  0  0  0
   73.7440   43.4820   -5.7130 C   0  0  0  0  0  0  0  0  0  0  0  0
   74.1630   42.7640   -4.4490 C   0  0  0  0  0  0  0  0  0  0  0  0
   73.1800   42.0360   -3.7480 C   0  0  0  0  0  0  0  0  0  0  0  0
   73.4700   41.3580   -2.5560 C   0  0  0  0  0  0  0  0  0  0  0  0
   72.4440   40.5740   -1.8360 C   0  0  0  0  0  0  0  0  0  0  0  0
   72.9660   39.4470   -1.2100 O   0  0  0  0  0  0  0  0  0  0  0  0
   72.1220   38.6280   -0.5050 C   0  0  0  0  0  0  0  0  0  0  0  0
   72.6870   37.5020    0.0940 C   0  0  0  0  0  0  0  0  0  0  0  0
   71.8830   36.6260    0.8280 C   0  0  0  0  0  0  0  0  0  0  0  0
   70.5160   36.8780    0.9630 C   0  0  0  0  0  0  0  0  0  0  0  0
   69.9560   38.0030    0.3640 C   0  0  0  0  0  0  0  0  0  0  0  0
   68.6120   38.1900    0.5370 O   0  0  0  0  0  0  0  0  0  0  0  0
   70.7600   38.8780   -0.3700 C   0  0  0  0  0  0  0  0  0  0  0  0
   70.2120   40.0720   -1.0160 C   0  0  0  0  0  0  0  0  0  0  0  0
   69.0200   40.3650   -0.9370 O   0  0  0  0  0  0  0  0  0  0  0  0
   71.1480   40.9300   -1.7780 C   0  0  0  0  0  0  0  0  0  0  0  0
   70.6210   42.0620   -2.3730 O   0  0  0  0  0  0  0  0  0  0  0  0
   74.7800   41.4020   -2.0710 C   0  0  0  0  0  0  0  0  0  0  0  0
   75.7670   42.1230   -2.7490 C   0  0  0  0  0  0  0  0  0  0  0  0
   75.4730   42.8180   -3.9340 C   0  0  0  0  0  0  0  0  0  0  0  0
   76.5970   43.5680   -4.6140 C   0  0  0  0  0  0  0  0  0  0  0  0
   77.4540   42.6500   -5.4740 C   0  0  0  0  0  0  0  0  0  0  0  0
   75.4100   43.9697   -7.6026 H   0  0  0  0  0  0  0  0  0  0  0  0
   75.1800   42.5454   -8.6728 H   0  0  0  0  0  0  0  0  0  0  0  0
   73.9705   43.8735   -8.6728 H   0  0  0  0  0  0  0  0  0  0  0  0
   72.8940   42.3262   -7.3224 H   0  0  0  0  0  0  0  0  0  0  0  0
   74.4510   41.6863   -6.6556 H   0  0  0  0  0  0  0  0  0  0  0  0
   74.3729   44.3754   -5.8408 H   0  0  0  0  0  0  0  0  0  0  0  0
   72.6835   43.7574   -5.6157 H   0  0  0  0  0  0  0  0  0  0  0  0
   72.1560   41.9990   -4.1480 H   0  0  0  0  0  0  0  0  0  0  0  0
   73.7639   37.3040   -0.0113 H   0  0  0  0  0  0  0  0  0  0  0  0
   72.3272   35.7372    1.2999 H   0  0  0  0  0  0  0  0  0  0  0  0
   69.8831   36.1890    1.5415 H   0  0  0  0  0  0  0  0  0  0  0  0
   68.0700   38.4060   -0.1970 H   0  0  0  0  0  0  0  0  0  0  0  0
   69.6930   42.1500   -2.4720 H   0  0  0  0  0  0  0  0  0  0  0  0
   75.0368   40.8639   -1.1466 H   0  0  0  0  0  0  0  0  0  0  0  0
   76.7910   42.1466   -2.3480 H   0  0  0  0  0  0  0  0  0  0  0  0
   76.1654   44.3528   -5.2526 H   0  0  0  0  0  0  0  0  0  0  0  0
   77.2393   44.0006   -3.8328 H   0  0  0  0  0  0  0  0  0  0  0  0
   78.0603   42.0005   -4.8255 H   0  0  0  0  0  0  0  0  0  0  0  0
   76.8040   42.0301   -6.1090 H   0  0  0  0  0  0  0  0  0  0  0  0
   78.1170   43.2559   -6.1090 H   0  0  0  0  0  0  0  0  0  0  0  0
  1  2  1  0
  2  3  1  0
  3  4  1  0
  4  5  2  0
  5  6  1  0
  6  7  1  0
  7  8  1  0
  8  9  1  0
  9 10  2  0
 10 11  1  0
 11 12  2  0
 12 13  1  0
 13 14  1  0
 13 15  2  0
 15 16  1  0
 16 17  2  0
 16 18  1  0
 18 19  1  0
  6 20  2  0
 20 21  1  0
 21 22  2  0
 22 23  1  0
 23 24  1  0
 22  4  1  0
 18  7  2  0
 15  9  1  0
  1 25  1  0
  1 26  1  0
  1 27  1  0
  2 28  1  0
  2 29  1  0
  3 30  1  0
  3 31  1  0
  5 32  1  0
 10 33  1  0
 11 34  1  0
 12 35  1  0
 14 36  1  0
 19 37  1  0
 20 38  1  0
 21 39  1  0
 23 40  1  0
 23 41  1  0
 24 42  1  0
 24 43  1  0
 24 44  1  0
M  END
>  <meeko>  (9) 
{"is_sidechain": [false], "free_energy": -7.478, "intermolecular_energy": -9.471, "internal_energy": -0.536}

$$$$
