cand_009_out
     RDKit          3D

 41 43  0  0  0  0  0  0  0  0999 V2000
   70.5780   36.9250    0.9260 C   0  0  0  0  0  0  0  0  0  0  0  0
   70.0870   38.0980    0.1220 C   0  0  0  0  0  0  0  0  0  0  0  0
   68.7520   38.5040    0.2820 C   0  0  0  0  0  0  0  0  0  0  0  0
   68.2350   39.5840   -0.4370 C   0  0  0  0  0  0  0  0  0  0  0  0
   69.0360   40.2850   -1.3410 C   0  0  0  0  0  0  0  0  0  0  0  0
   68.4790   41.4410   -2.0750 C   0  0  0  0  0  0  0  0  0  0  0  0
   67.5640   42.1680   -1.3230 O   0  0  0  0  0  0  0  0  0  0  0  0
   66.9700   43.2700   -1.8830 C   0  0  0  0  0  0  0  0  0  0  0  0
   66.0690   43.9790   -1.0870 C   0  0  0  0  0  0  0  0  0  0  0  0
   65.4290   45.1100   -1.5980 C   0  0  0  0  0  0  0  0  0  0  0  0
   65.6880   45.5320   -2.9040 C   0  0  0  0  0  0  0  0  0  0  0  0
   66.5880   44.8230   -3.6960 C   0  0  0  0  0  0  0  0  0  0  0  0
   66.7950   45.2890   -4.9650 O   0  0  0  0  0  0  0  0  0  0  0  0
   67.2290   43.6910   -3.1840 C   0  0  0  0  0  0  0  0  0  0  0  0
   68.1810   42.9180   -3.9830 C   0  0  0  0  0  0  0  0  0  0  0  0
   68.4550   43.2210   -5.1420 O   0  0  0  0  0  0  0  0  0  0  0  0
   68.8130   41.7390   -3.3450 C   0  0  0  0  0  0  0  0  0  0  0  0
   69.7000   41.0090   -4.1130 O   0  0  0  0  0  0  0  0  0  0  0  0
   70.3720   39.8870   -1.4940 C   0  0  0  0  0  0  0  0  0  0  0  0
   70.9170   38.7960   -0.7800 C   0  0  0  0  0  0  0  0  0  0  0  0
   72.3760   38.4110   -1.0050 C   0  0  0  0  0  0  0  0  0  0  0  0
   73.3210   39.2860   -0.1750 C   0  0  0  0  0  0  0  0  0  0  0  0
   72.7500   38.4590   -2.4900 C   0  0  0  0  0  0  0  0  0  0  0  0
   70.4837   37.1504    1.9985 H   0  0  0  0  0  0  0  0  0  0  0  0
   69.9762   36.0367    0.6837 H   0  0  0  0  0  0  0  0  0  0  0  0
   71.6332   36.7303    0.6837 H   0  0  0  0  0  0  0  0  0  0  0  0
   68.1027   37.9622    0.9855 H   0  0  0  0  0  0  0  0  0  0  0  0
   67.1873   39.8852   -0.2899 H   0  0  0  0  0  0  0  0  0  0  0  0
   65.8634   43.6473   -0.0586 H   0  0  0  0  0  0  0  0  0  0  0  0
   64.7195   45.6697   -0.9708 H   0  0  0  0  0  0  0  0  0  0  0  0
   65.1823   46.4223   -3.3061 H   0  0  0  0  0  0  0  0  0  0  0  0
   66.1180   45.7660   -5.4040 H   0  0  0  0  0  0  0  0  0  0  0  0
   70.5480   41.3560   -4.3070 H   0  0  0  0  0  0  0  0  0  0  0  0
   71.0162   40.4417   -2.1920 H   0  0  0  0  0  0  0  0  0  0  0  0
   72.4921   37.3715   -0.6644 H   0  0  0  0  0  0  0  0  0  0  0  0
   73.1349   39.1137    0.8954 H   0  0  0  0  0  0  0  0  0  0  0  0
   74.3635   39.0272   -0.4122 H   0  0  0  0  0  0  0  0  0  0  0  0
   73.1431   40.3453   -0.4122 H   0  0  0  0  0  0  0  0  0  0  0  0
   73.8365   38.5984   -2.5901 H   0  0  0  0  0  0  0  0  0  0  0  0
   72.4553   37.5157   -2.9730 H   0  0  0  0  0  0  0  0  0  0  0  0
   72.2267   39.2973   -2.9730 H   0  0  0  0  0  0  0  0  0  0  0  0
  1  2  1  0
  2  3  2  0
  3  4  1  0
  4  5  2  0
  5  6  1  0
  6  7  1  0
  7  8  1  0
  8  9  2  0
  9 10  1  0
 10 11  2  0
 11 12  1  0
 12 13  1  0
 12 14  2  0
 14 15  1  0
 15 16  2  0
 15 17  1  0
 17 18  1  0
  5 19  1  0
 19 20  2  0
 20 21  1  0
 21 22  1  0
 21 23  1  0
 20  2  1  0
 17  6  2  0
 14  8  1  0
  1 24  1  0
  1 25  1  0
  1 26  1  0
  3 27  1  0
  4 28  1  0
  9 29  1  0
 10 30  1  0
 11 31  1  0
 13 32  1  0
 18 33  1  0
 19 34  1  0
 21 35  1  0
 22 36  1  0
 22 37  1  0
 22 38  1  0
 23 39  1  0
 23 40  1  0
 23 41  1  0
M  END
>  <meeko>  (1) 
{"is_sidechain": [false], "free_energy": -7.965, "intermolecular_energy": -9.362, "internal_energy": -0.258}

$$$$
cand_009_out
     RDKit          3D

 41 43  0  0  0  0  0  0  0  0999 V2000
   77.1780   43.4980   -2.7710 C   0  0  0  0  0  0  0  0  0  0  0  0
   75.7470   43.0400   -2.6880 C   0  0  0  0  0  0  0  0  0  0  0  0
   75.4870   41.7480   -2.2010 C   0  0  0  0  0  0  0  0  0  0  0  0
   74.1810   41.2650   -2.1010 C   0  0  0  0  0  0  0  0  0  0  0  0
   73.0970   42.0560   -2.4910 C   0  0  0  0  0  0  0  0  0  0  0  0
   71.7200   41.5370   -2.3540 C   0  0  0  0  0  0  0  0  0  0  0  0
   71.5590   40.7180   -1.2420 O   0  0  0  0  0  0  0  0  0  0  0  0
   70.3270   40.1690   -0.9950 C   0  0  0  0  0  0  0  0  0  0  0  0
   70.2080   39.3650    0.1400 C   0  0  0  0  0  0  0  0  0  0  0  0
   68.9800   38.7740    0.4480 C   0  0  0  0  0  0  0  0  0  0  0  0
   67.8740   38.9850   -0.3780 C   0  0  0  0  0  0  0  0  0  0  0  0
   67.9970   39.7860   -1.5090 C   0  0  0  0  0  0  0  0  0  0  0  0
   66.8750   39.9500   -2.2750 O   0  0  0  0  0  0  0  0  0  0  0  0
   69.2250   40.3790   -1.8180 C   0  0  0  0  0  0  0  0  0  0  0  0
   69.3960   41.2280   -2.9970 C   0  0  0  0  0  0  0  0  0  0  0  0
   68.4730   41.4550   -3.7760 O   0  0  0  0  0  0  0  0  0  0  0  0
   70.7360   41.8150   -3.2300 C   0  0  0  0  0  0  0  0  0  0  0  0
   70.8890   42.6050   -4.3540 O   0  0  0  0  0  0  0  0  0  0  0  0
   73.3560   43.3490   -2.9660 C   0  0  0  0  0  0  0  0  0  0  0  0
   74.6680   43.8610   -3.0790 C   0  0  0  0  0  0  0  0  0  0  0  0
   74.8750   45.2730   -3.6160 C   0  0  0  0  0  0  0  0  0  0  0  0
   73.7110   46.1940   -3.2360 C   0  0  0  0  0  0  0  0  0  0  0  0
   75.1000   45.2740   -5.1320 C   0  0  0  0  0  0  0  0  0  0  0  0
   77.5812   43.6270   -1.7557 H   0  0  0  0  0  0  0  0  0  0  0  0
   77.7732   42.7455   -3.3090 H   0  0  0  0  0  0  0  0  0  0  0  0
   77.2257   44.4563   -3.3090 H   0  0  0  0  0  0  0  0  0  0  0  0
   76.3261   41.1066   -1.8935 H   0  0  0  0  0  0  0  0  0  0  0  0
   74.0035   40.2518   -1.7114 H   0  0  0  0  0  0  0  0  0  0  0  0
   71.0791   39.1971    0.7904 H   0  0  0  0  0  0  0  0  0  0  0  0
   68.8843   38.1414    1.3428 H   0  0  0  0  0  0  0  0  0  0  0  0
   66.9077   38.5190   -0.1350 H   0  0  0  0  0  0  0  0  0  0  0  0
   66.7740   40.7210   -2.7990 H   0  0  0  0  0  0  0  0  0  0  0  0
   71.7420   42.8960   -4.6100 H   0  0  0  0  0  0  0  0  0  0  0  0
   72.5094   43.9865   -3.2607 H   0  0  0  0  0  0  0  0  0  0  0  0
   75.7861   45.6676   -3.1426 H   0  0  0  0  0  0  0  0  0  0  0  0
   73.6342   46.2548   -2.1404 H   0  0  0  0  0  0  0  0  0  0  0  0
   73.8889   47.1985   -3.6474 H   0  0  0  0  0  0  0  0  0  0  0  0
   72.7743   45.7899   -3.6474 H   0  0  0  0  0  0  0  0  0  0  0  0
   76.1797   45.2788   -5.3424 H   0  0  0  0  0  0  0  0  0  0  0  0
   74.6449   44.3738   -5.5708 H   0  0  0  0  0  0  0  0  0  0  0  0
   74.6369   46.1701   -5.5708 H   0  0  0  0  0  0  0  0  0  0  0  0
  1  2  1  0
  2  3  2  0
  3  4  1  0
  4  5  2  0
  5  6  1  0
  6  7  1  0
  7  8  1  0
  8  9  2  0
  9 10  1  0
 10 11  2  0
 11 12  1  0
 12 13  1  0
 12 14  2  0
 14 15  1  0
 15 16  2  0
 15 17  1  0
 17 18  1  0
  5 19  1  0
 19 20  2  0
 20 21  1  0
 21 22  1  0
 21 23  1  0
 20  2  1  0
 17  6  2  0
 14  8  1  0
  1 24  1  0
  1 25  1  0
  1 26  1  0
  3 27  1  0
  4 28  1  0
  9 29  1  0
 10 30  1  0
 11 31  1  0
 13 32  1  0
 18 33  1  0
 19 34  1  0
 21 35  1  0
 22 36  1  0
 22 37  1  0
 22 38  1  0
 23 39  1  0
 23 40  1  0
 23 41  1  0
M  END
>  <meeko>  (2) 
{"is_sidechain": [false], "free_energy": -7.912, "intermolecular_energy": -9.349, "internal_energy": -0.209}

$$$$
cand_009_out
     RDKit          3D

 41 43  0  0  0  0  0  0  0  0999 V2000
   75.1120   43.5470   -6.1320 C   0  0  0  0  0  0  0  0  0  0  0  0
   74.2690   42.8100   -5.1270 C   0  0  0  0  0  0  0  0  0  0  0  0
   73.0960   42.1800   -5.5750 C   0  0  0  0  0  0  0  0  0  0  0  0
   72.2700   41.4820   -4.6910 C   0  0  0  0  0  0  0  0  0  0  0  0
   72.5900   41.3980   -3.3340 C   0  0  0  0  0  0  0  0  0  0  0  0
   71.7170   40.6340   -2.4180 C   0  0  0  0  0  0  0  0  0  0  0  0
   72.3820   39.5920   -1.7810 O   0  0  0  0  0  0  0  0  0  0  0  0
   71.6900   38.8020   -0.9000 C   0  0  0  0  0  0  0  0  0  0  0  0
   72.4010   37.7780   -0.2730 C   0  0  0  0  0  0  0  0  0  0  0  0
   71.7550   36.9350    0.6340 C   0  0  0  0  0  0  0  0  0  0  0  0
   70.3980   37.1150    0.9130 C   0  0  0  0  0  0  0  0  0  0  0  0
   69.6910   38.1380    0.2850 C   0  0  0  0  0  0  0  0  0  0  0  0
   68.3660   38.2570    0.6020 O   0  0  0  0  0  0  0  0  0  0  0  0
   70.3380   38.9810   -0.6220 C   0  0  0  0  0  0  0  0  0  0  0  0
   69.6320   40.0670   -1.3020 C   0  0  0  0  0  0  0  0  0  0  0  0
   68.4370   40.2850   -1.1160 O   0  0  0  0  0  0  0  0  0  0  0  0
   70.4120   40.9100   -2.2390 C   0  0  0  0  0  0  0  0  0  0  0  0
   69.7310   41.9240   -2.8860 O   0  0  0  0  0  0  0  0  0  0  0  0
   73.7670   42.0170   -2.8890 C   0  0  0  0  0  0  0  0  0  0  0  0
   74.6170   42.7320   -3.7620 C   0  0  0  0  0  0  0  0  0  0  0  0
   75.8750   43.3900   -3.2060 C   0  0  0  0  0  0  0  0  0  0  0  0
   76.3300   42.7210   -1.9040 C   0  0  0  0  0  0  0  0  0  0  0  0
   75.6850   44.8970   -3.0080 C   0  0  0  0  0  0  0  0  0  0  0  0
   75.8390   44.1825   -5.6051 H   0  0  0  0  0  0  0  0  0  0  0  0
   75.6478   42.8225   -6.7628 H   0  0  0  0  0  0  0  0  0  0  0  0
   74.4655   44.1748   -6.7628 H   0  0  0  0  0  0  0  0  0  0  0  0
   72.8236   42.2373   -6.6392 H   0  0  0  0  0  0  0  0  0  0  0  0
   71.3588   40.9938   -5.0671 H   0  0  0  0  0  0  0  0  0  0  0  0
   73.4693   37.6349   -0.4929 H   0  0  0  0  0  0  0  0  0  0  0  0
   72.3154   36.1283    1.1293 H   0  0  0  0  0  0  0  0  0  0  0  0
   69.8890   36.4506    1.6268 H   0  0  0  0  0  0  0  0  0  0  0  0
   68.0430   39.0580    0.9670 H   0  0  0  0  0  0  0  0  0  0  0  0
   70.1110   42.7790   -2.9490 H   0  0  0  0  0  0  0  0  0  0  0  0
   74.0373   41.9434   -1.8253 H   0  0  0  0  0  0  0  0  0  0  0  0
   76.6694   43.2489   -3.9537 H   0  0  0  0  0  0  0  0  0  0  0  0
   75.9435   43.2894   -1.0452 H   0  0  0  0  0  0  0  0  0  0  0  0
   75.9439   41.6917   -1.8663 H   0  0  0  0  0  0  0  0  0  0  0  0
   77.4292   42.7019   -1.8663 H   0  0  0  0  0  0  0  0  0  0  0  0
   75.6563   45.1247   -1.9322 H   0  0  0  0  0  0  0  0  0  0  0  0
   76.5222   45.4366   -3.4748 H   0  0  0  0  0  0  0  0  0  0  0  0
   74.7400   45.2119   -3.4748 H   0  0  0  0  0  0  0  0  0  0  0  0
  1  2  1  0
  2  3  2  0
  3  4  1  0
  4  5  2  0
  5  6  1  0
  6  7  1  0
  7  8  1  0
  8  9  2  0
  9 10  1  0
 10 11  2  0
 11 12  1  0
 12 13  1  0
 12 14  2  0
 14 15  1  0
 15 16  2  0
 15 17  1  0
 17 18  1  0
  5 19  1  0
 19 20  2  0
 20 21  1  0
 21 22  1  0
 21 23  1  0
 20  2  1  0
 17  6  2  0
 14  8  1  0
  1 24  1  0
  1 25  1  0
  1 26  1  0
  3 27  1  0
  4 28  1  0
  9 29  1  0
 10 30  1  0
 11 31  1  0
 13 32  1  0
 18 33  1  0
 19 34  1  0
 21 35  1  0
 22 36  1  0
 22 37  1  0
 22 38  1  0
 23 39  1  0
 23 40  1  0
 23 41  1  0
M  END
>  <meeko>  (3) 
{"is_sidechain": [false], "free_energy": -7.841, "intermolecular_energy": -9.141, "internal_energy": -0.333}

$$$$
cand_009_out
     RDKit          3D

 41 43  0  0  0  0  0  0  0  0999 V2000
   67.8510   38.6400    0.0340 C   0  0  0  0  0  0  0  0  0  0  0  0
   69.0970   39.3100   -0.4770 C   0  0  0  0  0  0  0  0  0  0  0  0
   68.9610   40.4870   -1.2320 C   0  0  0  0  0  0  0  0  0  0  0  0
   70.0800   41.1540   -1.7360 C   0  0  0  0  0  0  0  0  0  0  0  0
   71.3660   40.6610   -1.5050 C   0  0  0  0  0  0  0  0  0  0  0  0
   72.5400   41.3940   -2.0250 C   0  0  0  0  0  0  0  0  0  0  0  0
   72.2290   42.6820   -2.4460 O   0  0  0  0  0  0  0  0  0  0  0  0
   73.2280   43.4750   -2.9500 C   0  0  0  0  0  0  0  0  0  0  0  0
   72.8740   44.7650   -3.3460 C   0  0  0  0  0  0  0  0  0  0  0  0
   73.8440   45.6230   -3.8710 C   0  0  0  0  0  0  0  0  0  0  0  0
   75.1660   45.1910   -3.9990 C   0  0  0  0  0  0  0  0  0  0  0  0
   75.5150   43.9030   -3.6030 C   0  0  0  0  0  0  0  0  0  0  0  0
   76.8270   43.5440   -3.7570 O   0  0  0  0  0  0  0  0  0  0  0  0
   74.5450   43.0440   -3.0780 C   0  0  0  0  0  0  0  0  0  0  0  0
   74.8710   41.6840   -2.6490 C   0  0  0  0  0  0  0  0  0  0  0  0
   76.0090   41.2280   -2.7380 O   0  0  0  0  0  0  0  0  0  0  0  0
   73.7720   40.8570   -2.0990 C   0  0  0  0  0  0  0  0  0  0  0  0
   74.0890   39.5690   -1.7100 O   0  0  0  0  0  0  0  0  0  0  0  0
   71.5030   39.4920   -0.7420 C   0  0  0  0  0  0  0  0  0  0  0  0
   70.3870   38.7970   -0.2240 C   0  0  0  0  0  0  0  0  0  0  0  0
   70.6110   37.5260    0.5880 C   0  0  0  0  0  0  0  0  0  0  0  0
   70.6680   37.8210    2.0900 C   0  0  0  0  0  0  0  0  0  0  0  0
   71.8670   36.7770    0.1300 C   0  0  0  0  0  0  0  0  0  0  0  0
   67.8576   38.6435    1.1340 H   0  0  0  0  0  0  0  0  0  0  0  0
   66.9668   39.1843   -0.3291 H   0  0  0  0  0  0  0  0  0  0  0  0
   67.8175   37.6022   -0.3291 H   0  0  0  0  0  0  0  0  0  0  0  0
   67.9567   40.8899   -1.4295 H   0  0  0  0  0  0  0  0  0  0  0  0
   69.9470   42.0764   -2.3204 H   0  0  0  0  0  0  0  0  0  0  0  0
   71.8331   45.1062   -3.2451 H   0  0  0  0  0  0  0  0  0  0  0  0
   73.5659   46.6402   -4.1839 H   0  0  0  0  0  0  0  0  0  0  0  0
   75.9295   45.8669   -4.4117 H   0  0  0  0  0  0  0  0  0  0  0  0
   77.3810   44.0330   -4.3320 H   0  0  0  0  0  0  0  0  0  0  0  0
   74.9700   39.3520   -1.4770 H   0  0  0  0  0  0  0  0  0  0  0  0
   72.5122   39.1036   -0.5403 H   0  0  0  0  0  0  0  0  0  0  0  0
   69.7460   36.8712    0.4063 H   0  0  0  0  0  0  0  0  0  0  0  0
   70.4887   36.8931    2.6530 H   0  0  0  0  0  0  0  0  0  0  0  0
   71.6599   38.2205    2.3478 H   0  0  0  0  0  0  0  0  0  0  0  0
   69.8963   38.5612    2.3478 H   0  0  0  0  0  0  0  0  0  0  0  0
   72.4337   36.4390    1.0101 H   0  0  0  0  0  0  0  0  0  0  0  0
   71.5744   35.9058   -0.4744 H   0  0  0  0  0  0  0  0  0  0  0  0
   72.4944   37.4486   -0.4744 H   0  0  0  0  0  0  0  0  0  0  0  0
  1  2  1  0
  2  3  2  0
  3  4  1  0
  4  5  2  0
  5  6  1  0
  6  7  1  0
  7  8  1  0
  8  9  2  0
  9 10  1  0
 10 11  2  0
 11 12  1  0
 12 13  1  0
 12 14  2  0
 14 15  1  0
 15 16  2  0
 15 17  1  0
 17 18  1  0
  5 19  1  0
 19 20  2  0
 20 21  1  0
 21 22  1  0
 21 23  1  0
 20  2  1  0
 17  6  2  0
 14  8  1  0
  1 24  1  0
  1 25  1  0
  1 26  1  0
  3 27  1  0
  4 28  1  0
  9 29  1  0
 10 30  1  0
 11 31  1  0
 13 32  1  0
 18 33  1  0
 19 34  1  0
 21 35  1  0
 22 36  1  0
 22 37  1  0
 22 38  1  0
 23 39  1  0
 23 40  1  0
 23 41  1  0
M  END
>  <meeko>  (4) 
{"is_sidechain": [false], "free_energy": -7.815, "intermolecular_energy": -9.425, "internal_energy": -0.019}

$$$$
cand_009_out
     RDKit          3D

 41 43  0  0  0  0  0  0  0  0999 V2000
   75.4730   45.7020   -3.8590 C   0  0  0  0  0  0  0  0  0  0  0  0
   74.3280   44.7840   -3.5270 C   0  0  0  0  0  0  0  0  0  0  0  0
   73.0220   45.2960   -3.5890 C   0  0  0  0  0  0  0  0  0  0  0  0
   71.9180   44.4950   -3.2910 C   0  0  0  0  0  0  0  0  0  0  0  0
   72.0870   43.1610   -2.9160 C   0  0  0  0  0  0  0  0  0  0  0  0
   70.9060   42.3210   -2.6280 C   0  0  0  0  0  0  0  0  0  0  0  0
   71.0700   41.5250   -1.5000 O   0  0  0  0  0  0  0  0  0  0  0  0
   70.0470   40.6960   -1.1170 C   0  0  0  0  0  0  0  0  0  0  0  0
   70.2500   39.9260    0.0290 C   0  0  0  0  0  0  0  0  0  0  0  0
   69.2480   39.0590    0.4720 C   0  0  0  0  0  0  0  0  0  0  0  0
   68.0450   38.9610   -0.2310 C   0  0  0  0  0  0  0  0  0  0  0  0
   67.8460   39.7300   -1.3740 C   0  0  0  0  0  0  0  0  0  0  0  0
   66.6460   39.5850   -2.0160 O   0  0  0  0  0  0  0  0  0  0  0  0
   68.8480   40.5980   -1.8170 C   0  0  0  0  0  0  0  0  0  0  0  0
   68.6790   41.4240   -3.0130 C   0  0  0  0  0  0  0  0  0  0  0  0
   67.6530   41.3880   -3.6900 O   0  0  0  0  0  0  0  0  0  0  0  0
   69.7990   42.3170   -3.3940 C   0  0  0  0  0  0  0  0  0  0  0  0
   69.6330   43.0820   -4.5330 O   0  0  0  0  0  0  0  0  0  0  0  0
   73.3910   42.6450   -2.8640 C   0  0  0  0  0  0  0  0  0  0  0  0
   74.5240   43.4360   -3.1580 C   0  0  0  0  0  0  0  0  0  0  0  0
   75.9130   42.8120   -3.0700 C   0  0  0  0  0  0  0  0  0  0  0  0
   76.0610   41.6340   -4.0390 C   0  0  0  0  0  0  0  0  0  0  0  0
   76.2520   42.3870   -1.6370 C   0  0  0  0  0  0  0  0  0  0  0  0
   75.9306   46.0688   -2.9284 H   0  0  0  0  0  0  0  0  0  0  0  0
   76.2246   45.1534   -4.4457 H   0  0  0  0  0  0  0  0  0  0  0  0
   75.1009   46.5549   -4.4457 H   0  0  0  0  0  0  0  0  0  0  0  0
   72.8661   46.3460   -3.8773 H   0  0  0  0  0  0  0  0  0  0  0  0
   70.9050   44.9193   -3.3523 H   0  0  0  0  0  0  0  0  0  0  0  0
   71.1975   40.0016    0.5827 H   0  0  0  0  0  0  0  0  0  0  0  0
   69.4067   38.4526    1.3759 H   0  0  0  0  0  0  0  0  0  0  0  0
   67.2567   38.2777    0.1179 H   0  0  0  0  0  0  0  0  0  0  0  0
   66.5750   39.7930   -2.9260 H   0  0  0  0  0  0  0  0  0  0  0  0
   68.9490   42.8770   -5.1410 H   0  0  0  0  0  0  0  0  0  0  0  0
   73.5356   41.5907   -2.5854 H   0  0  0  0  0  0  0  0  0  0  0  0
   76.6345   43.5870   -3.3681 H   0  0  0  0  0  0  0  0  0  0  0  0
   76.1781   40.7015   -3.4674 H   0  0  0  0  0  0  0  0  0  0  0  0
   75.1644   41.5655   -4.6726 H   0  0  0  0  0  0  0  0  0  0  0  0
   76.9467   41.7894   -4.6726 H   0  0  0  0  0  0  0  0  0  0  0  0
   75.7284   43.0434   -0.9263 H   0  0  0  0  0  0  0  0  0  0  0  0
   75.9333   41.3462   -1.4781 H   0  0  0  0  0  0  0  0  0  0  0  0
   77.3376   42.4664   -1.4781 H   0  0  0  0  0  0  0  0  0  0  0  0
  1  2  1  0
  2  3  2  0
  3  4  1  0
  4  5  2  0
  5  6  1  0
  6  7  1  0
  7  8  1  0
  8  9  2  0
  9 10  1  0
 10 11  2  0
 11 12  1  0
 12 13  1  0
 12 14  2  0
 14 15  1  0
 15 16  2  0
 15 17  1  0
 17 18  1  0
  5 19  1  0
 19 20  2  0
 20 21  1  0
 21 22  1  0
 21 23  1  0
 20  2  1  0
 17  6  2  0
 14  8  1  0
  1 24  1  0
  1 25  1  0
  1 26  1  0
  3 27  1  0
  4 28  1  0
  9 29  1  0
 10 30  1  0
 11 31  1  0
 13 32  1  0
 18 33  1  0
 19 34  1  0
 21 35  1  0
 22 36  1  0
 22 37  1  0
 22 38  1  0
 23 39  1  0
 23 40  1  0
 23 41  1  0
M  END
>  <meeko>  (5) 
{"is_sidechain": [false], "free_energy": -7.812, "intermolecular_energy": -9.14, "internal_energy": -0.299}

$$$$
cand_009_out
     RDKit          3D

 41 43  0  0  0  0  0  0  0  0999 V2000
   74.0630   46.0440   -5.5530 C   0  0  0  0  0  0  0  0  0  0  0  0
   73.7140   44.8030   -4.7780 C   0  0  0  0  0  0  0  0  0  0  0  0
   72.9520   44.9400   -3.6050 C   0  0  0  0  0  0  0  0  0  0  0  0
   72.5980   43.8270   -2.8410 C   0  0  0  0  0  0  0  0  0  0  0  0
   72.9980   42.5440   -3.2240 C   0  0  0  0  0  0  0  0  0  0  0  0
   72.5910   41.3750   -2.4160 C   0  0  0  0  0  0  0  0  0  0  0  0
   71.2270   41.3500   -2.1500 O   0  0  0  0  0  0  0  0  0  0  0  0
   70.7140   40.3160   -1.4100 C   0  0  0  0  0  0  0  0  0  0  0  0
   69.3370   40.3230   -1.1800 C   0  0  0  0  0  0  0  0  0  0  0  0
   68.7510   39.3000   -0.4320 C   0  0  0  0  0  0  0  0  0  0  0  0
   69.5400   38.2710    0.0870 C   0  0  0  0  0  0  0  0  0  0  0  0
   70.9130   38.2660   -0.1450 C   0  0  0  0  0  0  0  0  0  0  0  0
   71.6270   37.2300    0.3930 O   0  0  0  0  0  0  0  0  0  0  0  0
   71.4990   39.2900   -0.8940 C   0  0  0  0  0  0  0  0  0  0  0  0
   72.9380   39.3220   -1.1600 C   0  0  0  0  0  0  0  0  0  0  0  0
   73.6990   38.4580   -0.7310 O   0  0  0  0  0  0  0  0  0  0  0  0
   73.4600   40.4470   -1.9720 C   0  0  0  0  0  0  0  0  0  0  0  0
   74.8220   40.4740   -2.2050 O   0  0  0  0  0  0  0  0  0  0  0  0
   73.7480   42.4050   -4.4000 C   0  0  0  0  0  0  0  0  0  0  0  0
   74.1230   43.5160   -5.1890 C   0  0  0  0  0  0  0  0  0  0  0  0
   74.9500   43.2910   -6.4500 C   0  0  0  0  0  0  0  0  0  0  0  0
   74.0830   42.7830   -7.6070 C   0  0  0  0  0  0  0  0  0  0  0  0
   76.1270   42.3450   -6.1930 C   0  0  0  0  0  0  0  0  0  0  0  0
   74.2927   46.8609   -4.8531 H   0  0  0  0  0  0  0  0  0  0  0  0
   74.9404   45.8462   -6.1863 H   0  0  0  0  0  0  0  0  0  0  0  0
   73.2111   46.3325   -6.1863 H   0  0  0  0  0  0  0  0  0  0  0  0
   72.6292   45.9413   -3.2837 H   0  0  0  0  0  0  0  0  0  0  0  0
   71.9984   43.9610   -1.9286 H   0  0  0  0  0  0  0  0  0  0  0  0
   68.7146   41.1333   -1.5875 H   0  0  0  0  0  0  0  0  0  0  0  0
   67.6660   39.3045   -0.2511 H   0  0  0  0  0  0  0  0  0  0  0  0
   69.0778   37.4663    0.6777 H   0  0  0  0  0  0  0  0  0  0  0  0
   71.6230   37.0900    1.3200 H   0  0  0  0  0  0  0  0  0  0  0  0
   75.1500   40.7530   -3.0370 H   0  0  0  0  0  0  0  0  0  0  0  0
   74.0548   41.3981   -4.7193 H   0  0  0  0  0  0  0  0  0  0  0  0
   75.3639   44.2674   -6.7422 H   0  0  0  0  0  0  0  0  0  0  0  0
   73.2000   42.2656   -7.2038 H   0  0  0  0  0  0  0  0  0  0  0  0
   73.7593   43.6343   -8.2239 H   0  0  0  0  0  0  0  0  0  0  0  0
   74.6674   42.0845   -8.2239 H   0  0  0  0  0  0  0  0  0  0  0  0
   76.2731   42.2276   -5.1091 H   0  0  0  0  0  0  0  0  0  0  0  0
   75.9139   41.3640   -6.6427 H   0  0  0  0  0  0  0  0  0  0  0  0
   77.0392   42.7641   -6.6427 H   0  0  0  0  0  0  0  0  0  0  0  0
  1  2  1  0
  2  3  2  0
  3  4  1  0
  4  5  2  0
  5  6  1  0
  6  7  1  0
  7  8  1  0
  8  9  2  0
  9 10  1  0
 10 11  2  0
 11 12  1  0
 12 13  1  0
 12 14  2  0
 14 15  1  0
 15 16  2  0
 15 17  1  0
 17 18  1  0
  5 19  1  0
 19 20  2  0
 20 21  1  0
 21 22  1  0
 21 23  1  0
 20  2  1  0
 17  6  2  0
 14  8  1  0
  1 24  1  0
  1 25  1  0
  1 26  1  0
  3 27  1  0
  4 28  1  0
  9 29  1  0
 10 30  1  0
 11 31  1  0
 13 32  1  0
 18 33  1  0
 19 34  1  0
 21 35  1  0
 22 36  1  0
 22 37  1  0
 22 38  1  0
 23 39  1  0
 23 40  1  0
 23 41  1  0
M  END
>  <meeko>  (6) 
{"is_sidechain": [false], "free_energy": -7.767, "intermolecular_energy": -8.952, "internal_energy": -0.435}

$$$$
cand_009_out
     RDKit          3D

 41 43  0  0  0  0  0  0  0  0999 V2000
   72.2580   36.6140    0.0390 C   0  0  0  0  0  0  0  0  0  0  0  0
   72.0420   37.8730   -0.7560 C   0  0  0  0  0  0  0  0  0  0  0  0
   73.0040   38.2310   -1.7150 C   0  0  0  0  0  0  0  0  0  0  0  0
   72.8620   39.3880   -2.4820 C   0  0  0  0  0  0  0  0  0  0  0  0
   71.7570   40.2250   -2.3100 C   0  0  0  0  0  0  0  0  0  0  0  0
   71.6100   41.4330   -3.1500 C   0  0  0  0  0  0  0  0  0  0  0  0
   72.6970   42.2950   -3.0510 O   0  0  0  0  0  0  0  0  0  0  0  0
   72.6920   43.4560   -3.7800 C   0  0  0  0  0  0  0  0  0  0  0  0
   73.8090   44.2840   -3.6610 C   0  0  0  0  0  0  0  0  0  0  0  0
   73.8660   45.4830   -4.3760 C   0  0  0  0  0  0  0  0  0  0  0  0
   72.8070   45.8530   -5.2080 C   0  0  0  0  0  0  0  0  0  0  0  0
   71.6940   45.0250   -5.3240 C   0  0  0  0  0  0  0  0  0  0  0  0
   70.6930   45.4490   -6.1550 O   0  0  0  0  0  0  0  0  0  0  0  0
   71.6370   43.8260   -4.6090 C   0  0  0  0  0  0  0  0  0  0  0  0
   70.4860   42.9270   -4.7040 C   0  0  0  0  0  0  0  0  0  0  0  0
   69.5130   43.1870   -5.4070 O   0  0  0  0  0  0  0  0  0  0  0  0
   70.5270   41.6750   -3.9110 C   0  0  0  0  0  0  0  0  0  0  0  0
   69.4290   40.8410   -3.9980 O   0  0  0  0  0  0  0  0  0  0  0  0
   70.7900   39.8620   -1.3610 C   0  0  0  0  0  0  0  0  0  0  0  0
   70.9130   38.6990   -0.5700 C   0  0  0  0  0  0  0  0  0  0  0  0
   69.8280   38.3730    0.4520 C   0  0  0  0  0  0  0  0  0  0  0  0
   68.4620   38.9060    0.0080 C   0  0  0  0  0  0  0  0  0  0  0  0
   70.1910   38.8930    1.8470 C   0  0  0  0  0  0  0  0  0  0  0  0
   72.2180   36.8473    1.1132 H   0  0  0  0  0  0  0  0  0  0  0  0
   71.4718   35.8853   -0.2075 H   0  0  0  0  0  0  0  0  0  0  0  0
   73.2422   36.1890   -0.2075 H   0  0  0  0  0  0  0  0  0  0  0  0
   73.8842   37.5883   -1.8639 H   0  0  0  0  0  0  0  0  0  0  0  0
   73.6277   39.6434   -3.2293 H   0  0  0  0  0  0  0  0  0  0  0  0
   74.6431   43.9932   -3.0055 H   0  0  0  0  0  0  0  0  0  0  0  0
   74.7461   46.1364   -4.2835 H   0  0  0  0  0  0  0  0  0  0  0  0
   72.8523   46.7971   -5.7707 H   0  0  0  0  0  0  0  0  0  0  0  0
   69.8960   45.7840   -5.7930 H   0  0  0  0  0  0  0  0  0  0  0  0
   68.5680   41.2040   -4.0690 H   0  0  0  0  0  0  0  0  0  0  0  0
   69.9070   40.5044   -1.2287 H   0  0  0  0  0  0  0  0  0  0  0  0
   69.7594   37.2768    0.5120 H   0  0  0  0  0  0  0  0  0  0  0  0
   67.8551   39.1428    0.8943 H   0  0  0  0  0  0  0  0  0  0  0  0
   68.6015   39.8156   -0.5946 H   0  0  0  0  0  0  0  0  0  0  0  0
   67.9486   38.1422   -0.5946 H   0  0  0  0  0  0  0  0  0  0  0  0
   69.7374   38.2433    2.6100 H   0  0  0  0  0  0  0  0  0  0  0  0
   71.2845   38.8904    1.9662 H   0  0  0  0  0  0  0  0  0  0  0  0
   69.8116   39.9186    1.9662 H   0  0  0  0  0  0  0  0  0  0  0  0
  1  2  1  0
  2  3  2  0
  3  4  1  0
  4  5  2  0
  5  6  1  0
  6  7  1  0
  7  8  1  0
  8  9  2  0
  9 10  1  0
 10 11  2  0
 11 12  1  0
 12 13  1  0
 12 14  2  0
 14 15  1  0
 15 16  2  0
 15 17  1  0
 17 18  1  0
  5 19  1  0
 19 20  2  0
 20 21  1  0
 21 22  1  0
 21 23  1  0
 20  2  1  0
 17  6  2  0
 14  8  1  0
  1 24  1  0
  1 25  1  0
  1 26  1  0
  3 27  1  0
  4 28  1  0
  9 29  1  0
 10 30  1  0
 11 31  1  0
 13 32  1  0
 18 33  1  0
 19 34  1  0
 21 35  1  0
 22 36  1  0
 22 37  1  0
 22 38  1  0
 23 39  1  0
 23 40  1  0
 23 41  1  0
M  END
>  <meeko>  (7) 
{"is_sidechain": [false], "free_energy": -7.761, "intermolecular_energy": -9.004, "internal_energy": -0.376}

$$$$
cand_009_out
     RDKit          3D

 41 43  0  0  0  0  0  0  0  0999 V2000
   72.8710   45.6930   -6.2270 C   0  0  0  0  0  0  0  0  0  0  0  0
   72.7220   44.5580   -5.2520 C   0  0  0  0  0  0  0  0  0  0  0  0
   71.7480   43.5790   -5.5100 C   0  0  0  0  0  0  0  0  0  0  0  0
   71.5590   42.5020   -4.6410 C   0  0  0  0  0  0  0  0  0  0  0  0
   72.3350   42.3740   -3.4870 C   0  0  0  0  0  0  0  0  0  0  0  0
   72.1390   41.2140   -2.5920 C   0  0  0  0  0  0  0  0  0  0  0  0
   70.8380   41.1180   -2.1100 O   0  0  0  0  0  0  0  0  0  0  0  0
   70.5170   40.0840   -1.2680 C   0  0  0  0  0  0  0  0  0  0  0  0
   69.1970   40.0180   -0.8200 C   0  0  0  0  0  0  0  0  0  0  0  0
   68.8050   38.9910    0.0410 C   0  0  0  0  0  0  0  0  0  0  0  0
   69.7310   38.0300    0.4540 C   0  0  0  0  0  0  0  0  0  0  0  0
   71.0480   38.0990    0.0050 C   0  0  0  0  0  0  0  0  0  0  0  0
   71.9040   37.1280    0.4490 O   0  0  0  0  0  0  0  0  0  0  0  0
   71.4400   39.1270   -0.8570 C   0  0  0  0  0  0  0  0  0  0  0  0
   72.8130   39.2350   -1.3520 C   0  0  0  0  0  0  0  0  0  0  0  0
   73.6870   38.4340   -1.0280 O   0  0  0  0  0  0  0  0  0  0  0  0
   73.1250   40.3570   -2.2680 C   0  0  0  0  0  0  0  0  0  0  0  0
   74.4280   40.4570   -2.7180 O   0  0  0  0  0  0  0  0  0  0  0  0
   73.3150   43.3450   -3.2350 C   0  0  0  0  0  0  0  0  0  0  0  0
   73.5230   44.4460   -4.0960 C   0  0  0  0  0  0  0  0  0  0  0  0
   74.6000   45.4690   -3.7510 C   0  0  0  0  0  0  0  0  0  0  0  0
   75.7500   44.8320   -2.9650 C   0  0  0  0  0  0  0  0  0  0  0  0
   74.0190   46.6680   -2.9950 C   0  0  0  0  0  0  0  0  0  0  0  0
   72.9949   46.6365   -5.6752 H   0  0  0  0  0  0  0  0  0  0  0  0
   73.7541   45.5195   -6.8595 H   0  0  0  0  0  0  0  0  0  0  0  0
   71.9731   45.7533   -6.8595 H   0  0  0  0  0  0  0  0  0  0  0  0
   71.1236   43.6621   -6.4118 H   0  0  0  0  0  0  0  0  0  0  0  0
   70.7915   41.7473   -4.8678 H   0  0  0  0  0  0  0  0  0  0  0  0
   68.4666   40.7737   -1.1446 H   0  0  0  0  0  0  0  0  0  0  0  0
   67.7648   38.9385    0.3949 H   0  0  0  0  0  0  0  0  0  0  0  0
   69.4211   37.2210    1.1319 H   0  0  0  0  0  0  0  0  0  0  0  0
   72.8240   37.3000    0.4910 H   0  0  0  0  0  0  0  0  0  0  0  0
   74.8690   41.2830   -2.6990 H   0  0  0  0  0  0  0  0  0  0  0  0
   73.9427   43.2463   -2.3371 H   0  0  0  0  0  0  0  0  0  0  0  0
   75.0082   45.8398   -4.7028 H   0  0  0  0  0  0  0  0  0  0  0  0
   75.5597   44.9374   -1.8867 H   0  0  0  0  0  0  0  0  0  0  0  0
   75.8229   43.7649   -3.2219 H   0  0  0  0  0  0  0  0  0  0  0  0
   76.6933   45.3362   -3.2219 H   0  0  0  0  0  0  0  0  0  0  0  0
   74.1031   46.4944   -1.9120 H   0  0  0  0  0  0  0  0  0  0  0  0
   74.5766   47.5769   -3.2650 H   0  0  0  0  0  0  0  0  0  0  0  0
   72.9601   46.7936   -3.2650 H   0  0  0  0  0  0  0  0  0  0  0  0
  1  2  1  0
  2  3  2  0
  3  4  1  0
  4  5  2  0
  5  6  1  0
  6  7  1  0
  7  8  1  0
  8  9  2  0
  9 10  1  0
 10 11  2  0
 11 12  1  0
 12 13  1  0
 12 14  2  0
 14 15  1  0
 15 16  2  0
 15 17  1  0
 17 18  1  0
  5 19  1  0
 19 20  2  0
 20 21  1  0
 21 22  1  0
 21 23  1  0
 20  2  1  0
 17  6  2  0
 14  8  1  0
  1 24  1  0
  1 25  1  0
  1 26  1  0
  3 27  1  0
  4 28  1  0
  9 29  1  0
 10 30  1  0
 11 31  1  0
 13 32  1  0
 18 33  1  0
 19 34  1  0
 21 35  1  0
 22 36  1  0
 22 37  1  0
 22 38  1  0
 23 39  1  0
 23 40  1  0
 23 41  1  0
M  END
>  <meeko>  (8) 
{"is_sidechain": [false], "free_energy": -7.682, "intermolecular_energy": -8.9, "internal_energy": -0.386}

$$$$
cand_009_out
     RDKit          3D

 41 43  0  0  0  0  0  0  0  0999 V2000
   76.7510   43.7330   -4.2360 C   0  0  0  0  0  0  0  0  0  0  0  0
   75.6340   42.9300   -3.6290 C   0  0  0  0  0  0  0  0  0  0  0  0
   75.8660   42.2830   -2.4040 C   0  0  0  0  0  0  0  0  0  0  0  0
   74.8700   41.5200   -1.7910 C   0  0  0  0  0  0  0  0  0  0  0  0
   73.6150   41.3770   -2.3870 C   0  0  0  0  0  0  0  0  0  0  0  0
   72.5640   40.5870   -1.7110 C   0  0  0  0  0  0  0  0  0  0  0  0
   73.0490   39.4100   -1.1520 O   0  0  0  0  0  0  0  0  0  0  0  0
   72.1790   38.5810   -0.4920 C   0  0  0  0  0  0  0  0  0  0  0  0
   72.7120   37.4180    0.0660 C   0  0  0  0  0  0  0  0  0  0  0  0
   71.8800   36.5290    0.7510 C   0  0  0  0  0  0  0  0  0  0  0  0
   70.5160   36.8030    0.8760 C   0  0  0  0  0  0  0  0  0  0  0  0
   69.9870   37.9630    0.3180 C   0  0  0  0  0  0  0  0  0  0  0  0
   68.6440   38.1690    0.4770 O   0  0  0  0  0  0  0  0  0  0  0  0
   70.8200   38.8530   -0.3660 C   0  0  0  0  0  0  0  0  0  0  0  0
   70.3050   40.0840   -0.9670 C   0  0  0  0  0  0  0  0  0  0  0  0
   69.1160   40.3900   -0.9060 O   0  0  0  0  0  0  0  0  0  0  0  0
   71.2730   40.9630   -1.6640 C   0  0  0  0  0  0  0  0  0  0  0  0
   70.7720   42.1160   -2.2390 O   0  0  0  0  0  0  0  0  0  0  0  0
   73.3790   42.0320   -3.6040 C   0  0  0  0  0  0  0  0  0  0  0  0
   74.3710   42.8070   -4.2460 C   0  0  0  0  0  0  0  0  0  0  0  0
   74.0470   43.4810   -5.5750 C   0  0  0  0  0  0  0  0  0  0  0  0
   72.9770   44.5660   -5.4090 C   0  0  0  0  0  0  0  0  0  0  0  0
   73.6300   42.4620   -6.6400 C   0  0  0  0  0  0  0  0  0  0  0  0
   77.3633   44.1732   -3.4352 H   0  0  0  0  0  0  0  0  0  0  0  0
   77.3777   43.0774   -4.8584 H   0  0  0  0  0  0  0  0  0  0  0  0
   76.3292   44.5359   -4.8584 H   0  0  0  0  0  0  0  0  0  0  0  0
   76.8488   42.3790   -1.9194 H   0  0  0  0  0  0  0  0  0  0  0  0
   75.0758   41.0269   -0.8295 H   0  0  0  0  0  0  0  0  0  0  0  0
   73.7859   37.2016   -0.0335 H   0  0  0  0  0  0  0  0  0  0  0  0
   72.2993   35.6127    1.1922 H   0  0  0  0  0  0  0  0  0  0  0  0
   69.8608   36.1027    1.4148 H   0  0  0  0  0  0  0  0  0  0  0  0
   68.1540   38.6010   -0.1960 H   0  0  0  0  0  0  0  0  0  0  0  0
   70.3100   42.7400   -1.7140 H   0  0  0  0  0  0  0  0  0  0  0  0
   72.3890   41.9396   -4.0745 H   0  0  0  0  0  0  0  0  0  0  0  0
   74.9705   43.9677   -5.9218 H   0  0  0  0  0  0  0  0  0  0  0  0
   72.7999   44.7456   -4.3383 H   0  0  0  0  0  0  0  0  0  0  0  0
   73.3211   45.4962   -5.8848 H   0  0  0  0  0  0  0  0  0  0  0  0
   72.0421   44.2349   -5.8848 H   0  0  0  0  0  0  0  0  0  0  0  0
   73.2571   41.5508   -6.1495 H   0  0  0  0  0  0  0  0  0  0  0  0
   72.8355   42.8919   -7.2676 H   0  0  0  0  0  0  0  0  0  0  0  0
   74.4980   42.2116   -7.2676 H   0  0  0  0  0  0  0  0  0  0  0  0
  1  2  1  0
  2  3  2  0
  3  4  1  0
  4  5  2  0
  5  6  1  0
  6  7  1  0
  7  8  1  0
  8  9  2  0
  9 10  1  0
 10 11  2  0
 11 12  1  0
 12 13  1  0
 12 14  2  0
 14 15  1  0
 15 16  2  0
 15 17  1  0
 17 18  1  0
  5 19  1  0
 19 20  2  0
 20 21  1  0
 21 22  1  0
 21 23  1  0
 20  2  1  0
 17  6  2  0
 14  8  1  0
  1 24  1  0
  1 25  1  0
  1 26  1  0
  3 27  1  0
  4 28  1  0
  9 29  1  0
 10 30  1  0
 11 31  1  0
 13 32  1  0
 18 33  1  0
 19 34  1  0
 21 35  1  0
 22 36  1  0
 22 37  1  0
 22 38  1  0
 23 39  1  0
 23 40  1  0
 23 41  1  0
M  END
>  <meeko>  (9) 
{"is_sidechain": [false], "free_energy": -7.652, "intermolecular_energy": -8.976, "internal_energy": -0.275}

$$$$
