cand_056_out
     RDKit          3D

 50 53  0  0  0  0  0  0  0  0999 V2000
   75.5670   49.3820   -2.0650 C   0  0  0  0  0  0  0  0  0  0  0  0
   75.0750   48.0170   -2.2450 N   0  0  0  0  0  0  0  0  0  0  0  0
   73.7960   48.0200   -2.9930 C   0  0  0  0  0  0  0  0  0  0  0  0
   73.2630   46.5910   -3.2570 C   0  0  0  0  0  0  0  0  0  0  0  0
   74.2830   45.8010   -3.9860 N   0  0  0  0  0  0  0  0  0  0  0  0
   73.8320   44.5300   -4.3830 C   0  0  0  0  0  0  0  0  0  0  0  0
   73.4250   43.5590   -3.4480 C   0  0  0  0  0  0  0  0  0  0  0  0
   72.9660   42.2940   -3.8440 C   0  0  0  0  0  0  0  0  0  0  0  0
   72.5590   41.2730   -2.8580 C   0  0  0  0  0  0  0  0  0  0  0  0
   71.1890   41.2640   -2.6200 O   0  0  0  0  0  0  0  0  0  0  0  0
   70.6770   40.3610   -1.7250 C   0  0  0  0  0  0  0  0  0  0  0  0
   69.2950   40.3780   -1.5280 C   0  0  0  0  0  0  0  0  0  0  0  0
   68.7090   39.4860   -0.6270 C   0  0  0  0  0  0  0  0  0  0  0  0
   69.5040   38.5780    0.0760 C   0  0  0  0  0  0  0  0  0  0  0  0
   70.8820   38.5640   -0.1220 C   0  0  0  0  0  0  0  0  0  0  0  0
   71.6010   37.6500    0.6000 O   0  0  0  0  0  0  0  0  0  0  0  0
   71.4680   39.4560   -1.0230 C   0  0  0  0  0  0  0  0  0  0  0  0
   72.9120   39.4750   -1.2600 C   0  0  0  0  0  0  0  0  0  0  0  0
   73.6790   38.7120   -0.6740 O   0  0  0  0  0  0  0  0  0  0  0  0
   73.4330   40.4550   -2.2420 C   0  0  0  0  0  0  0  0  0  0  0  0
   74.7990   40.4740   -2.4490 O   0  0  0  0  0  0  0  0  0  0  0  0
   72.9350   41.9950   -5.2100 C   0  0  0  0  0  0  0  0  0  0  0  0
   73.3370   42.9430   -6.1520 C   0  0  0  0  0  0  0  0  0  0  0  0
   73.7870   44.2150   -5.7530 C   0  0  0  0  0  0  0  0  0  0  0  0
   74.2140   45.2230   -6.7920 C   0  0  0  0  0  0  0  0  0  0  0  0
   74.2920   44.6830   -8.0480 F   0  0  0  0  0  0  0  0  0  0  0  0
   75.4500   45.7550   -6.5650 F   0  0  0  0  0  0  0  0  0  0  0  0
   73.3570   46.2780   -6.9200 F   0  0  0  0  0  0  0  0  0  0  0  0
   75.5670   45.7600   -3.2480 C   0  0  0  0  0  0  0  0  0  0  0  0
   76.0680   47.2000   -2.9820 C   0  0  0  0  0  0  0  0  0  0  0  0
   75.6471   49.6042   -0.9907 H   0  0  0  0  0  0  0  0  0  0  0  0
   76.5570   49.4798   -2.5345 H   0  0  0  0  0  0  0  0  0  0  0  0
   74.8671   50.0889   -2.5345 H   0  0  0  0  0  0  0  0  0  0  0  0
   74.9260   47.6130   -1.3200 H   0  0  0  0  0  0  0  0  0  0  0  0
   73.0465   48.5742   -2.4089 H   0  0  0  0  0  0  0  0  0  0  0  0
   73.9791   48.4950   -3.9681 H   0  0  0  0  0  0  0  0  0  0  0  0
   73.0394   46.1017   -2.2975 H   0  0  0  0  0  0  0  0  0  0  0  0
   72.3481   46.6513   -3.8647 H   0  0  0  0  0  0  0  0  0  0  0  0
   73.4683   43.7995   -2.3755 H   0  0  0  0  0  0  0  0  0  0  0  0
   68.6685   41.0929   -2.0816 H   0  0  0  0  0  0  0  0  0  0  0  0
   67.6202   39.4986   -0.4709 H   0  0  0  0  0  0  0  0  0  0  0  0
   69.0421   37.8751    0.7849 H   0  0  0  0  0  0  0  0  0  0  0  0
   72.2190   37.0940    0.1680 H   0  0  0  0  0  0  0  0  0  0  0  0
   75.1430   40.3910   -3.3170 H   0  0  0  0  0  0  0  0  0  0  0  0
   72.5911   41.0051   -5.5444 H   0  0  0  0  0  0  0  0  0  0  0  0
   73.3015   42.6920   -7.2224 H   0  0  0  0  0  0  0  0  0  0  0  0
   75.4200   45.2420   -2.2888 H   0  0  0  0  0  0  0  0  0  0  0  0
   76.3139   45.2222   -3.8504 H   0  0  0  0  0  0  0  0  0  0  0  0
   76.9929   47.1482   -2.3888 H   0  0  0  0  0  0  0  0  0  0  0  0
   76.2403   47.6803   -3.9565 H   0  0  0  0  0  0  0  0  0  0  0  0
  1  2  1  0
  2  3  1  0
  3  4  1  0
  4  5  1  0
  5  6  1  0
  6  7  2  0
  7  8  1  0
  8  9  1  0
  9 10  1  0
 10 11  1  0
 11 12  2  0
 12 13  1  0
 13 14  2  0
 14 15  1  0
 15 16  1  0
 15 17  2  0
 17 18  1  0
 18 19  2  0
 18 20  1  0
 20 21  1  0
  8 22  2  0
 22 23  1  0
 23 24  2  0
 24 25  1  0
 25 26  1  0
 25 27  1  0
 25 28  1  0
  5 29  1  0
 29 30  1  0
 30  2  1  0
 24  6  1  0
 20  9  2  0
 17 11  1  0
  1 31  1  0
  1 32  1  0
  1 33  1  0
  2 34  1  0
  3 35  1  0
  3 36  1  0
  4 37  1  0
  4 38  1  0
  7 39  1  0
 12 40  1  0
 13 41  1  0
 14 42  1  0
 16 43  1  0
 21 44  1  0
 22 45  1  0
 23 46  1  0
 29 47  1  0
 29 48  1  0
 30 49  1  0
 30 50  1  0
M  CHG  1   2   1
M  END
>  <meeko>  (1) 
{"is_sidechain": [false], "free_energy": -7.694, "intermolecular_energy": -9.494, "internal_energy": -0.778}

$$$$
cand_056_out
     RDKit          3D

 50 53  0  0  0  0  0  0  0  0999 V2000
   74.5890   49.1630   -5.6480 C   0  0  0  0  0  0  0  0  0  0  0  0
   74.1570   47.8540   -5.1610 N   0  0  0  0  0  0  0  0  0  0  0  0
   74.9480   46.7750   -5.7980 C   0  0  0  0  0  0  0  0  0  0  0  0
   74.5640   45.3720   -5.2710 C   0  0  0  0  0  0  0  0  0  0  0  0
   74.7240   45.3260   -3.7990 N   0  0  0  0  0  0  0  0  0  0  0  0
   74.5220   44.0470   -3.2510 C   0  0  0  0  0  0  0  0  0  0  0  0
   73.2350   43.4950   -3.1050 C   0  0  0  0  0  0  0  0  0  0  0  0
   73.0330   42.2150   -2.5670 C   0  0  0  0  0  0  0  0  0  0  0  0
   71.6790   41.6480   -2.3990 C   0  0  0  0  0  0  0  0  0  0  0  0
   71.5610   40.8540   -1.2650 O   0  0  0  0  0  0  0  0  0  0  0  0
   70.3530   40.2660   -0.9900 C   0  0  0  0  0  0  0  0  0  0  0  0
   70.2760   39.4880    0.1660 C   0  0  0  0  0  0  0  0  0  0  0  0
   69.0750   38.8600    0.5040 C   0  0  0  0  0  0  0  0  0  0  0  0
   67.9530   39.0090   -0.3140 C   0  0  0  0  0  0  0  0  0  0  0  0
   68.0330   39.7850   -1.4670 C   0  0  0  0  0  0  0  0  0  0  0  0
   66.8970   39.8880   -2.2230 O   0  0  0  0  0  0  0  0  0  0  0  0
   69.2340   40.4140   -1.8050 C   0  0  0  0  0  0  0  0  0  0  0  0
   69.3610   41.2380   -3.0080 C   0  0  0  0  0  0  0  0  0  0  0  0
   68.4220   41.4110   -3.7810 O   0  0  0  0  0  0  0  0  0  0  0  0
   70.6760   41.8670   -3.2710 C   0  0  0  0  0  0  0  0  0  0  0  0
   70.7900   42.6330   -4.4160 O   0  0  0  0  0  0  0  0  0  0  0  0
   74.1500   41.4850   -2.1490 C   0  0  0  0  0  0  0  0  0  0  0  0
   75.4340   42.0170   -2.2810 C   0  0  0  0  0  0  0  0  0  0  0  0
   75.6340   43.2970   -2.8320 C   0  0  0  0  0  0  0  0  0  0  0  0
   77.0330   43.8480   -2.9670 C   0  0  0  0  0  0  0  0  0  0  0  0
   77.9830   43.0030   -2.4560 F   0  0  0  0  0  0  0  0  0  0  0  0
   77.2250   45.0260   -2.3050 F   0  0  0  0  0  0  0  0  0  0  0  0
   77.4180   44.0630   -4.2580 F   0  0  0  0  0  0  0  0  0  0  0  0
   73.9220   46.3800   -3.1330 C   0  0  0  0  0  0  0  0  0  0  0  0
   74.3130   47.7700   -3.6900 C   0  0  0  0  0  0  0  0  0  0  0  0
   74.8056   49.8194   -4.7923 H   0  0  0  0  0  0  0  0  0  0  0  0
   75.4961   49.0458   -6.2591 H   0  0  0  0  0  0  0  0  0  0  0  0
   73.7903   49.6087   -6.2591 H   0  0  0  0  0  0  0  0  0  0  0  0
   73.1720   47.7390   -5.4030 H   0  0  0  0  0  0  0  0  0  0  0  0
   74.7748   46.8040   -6.8839 H   0  0  0  0  0  0  0  0  0  0  0  0
   76.0067   46.9466   -5.5539 H   0  0  0  0  0  0  0  0  0  0  0  0
   73.5167   45.1586   -5.5310 H   0  0  0  0  0  0  0  0  0  0  0  0
   75.2216   44.6196   -5.7308 H   0  0  0  0  0  0  0  0  0  0  0  0
   72.3622   44.0846   -3.4221 H   0  0  0  0  0  0  0  0  0  0  0  0
   71.1598   39.3695    0.8101 H   0  0  0  0  0  0  0  0  0  0  0  0
   69.0129   38.2474    1.4155 H   0  0  0  0  0  0  0  0  0  0  0  0
   67.0075   38.5140   -0.0477 H   0  0  0  0  0  0  0  0  0  0  0  0
   66.0890   39.5360   -1.9050 H   0  0  0  0  0  0  0  0  0  0  0  0
   71.2920   42.3180   -5.1420 H   0  0  0  0  0  0  0  0  0  0  0  0
   74.0160   40.4841   -1.7129 H   0  0  0  0  0  0  0  0  0  0  0  0
   76.3017   41.4277   -1.9498 H   0  0  0  0  0  0  0  0  0  0  0  0
   72.8535   46.1990   -3.3213 H   0  0  0  0  0  0  0  0  0  0  0  0
   74.1182   46.3551   -2.0509 H   0  0  0  0  0  0  0  0  0  0  0  0
   73.6708   48.5311   -3.2227 H   0  0  0  0  0  0  0  0  0  0  0  0
   75.3744   47.9385   -3.4554 H   0  0  0  0  0  0  0  0  0  0  0  0
  1  2  1  0
  2  3  1  0
  3  4  1  0
  4  5  1  0
  5  6  1  0
  6  7  2  0
  7  8  1  0
  8  9  1  0
  9 10  1  0
 10 11  1  0
 11 12  2  0
 12 13  1  0
 13 14  2  0
 14 15  1  0
 15 16  1  0
 15 17  2  0
 17 18  1  0
 18 19  2  0
 18 20  1  0
 20 21  1  0
  8 22  2  0
 22 23  1  0
 23 24  2  0
 24 25  1  0
 25 26  1  0
 25 27  1  0
 25 28  1  0
  5 29  1  0
 29 30  1  0
 30  2  1  0
 24  6  1  0
 20  9  2  0
 17 11  1  0
  1 31  1  0
  1 32  1  0
  1 33  1  0
  2 34  1  0
  3 35  1  0
  3 36  1  0
  4 37  1  0
  4 38  1  0
  7 39  1  0
 12 40  1  0
 13 41  1  0
 14 42  1  0
 16 43  1  0
 21 44  1  0
 22 45  1  0
 23 46  1  0
 29 47  1  0
 29 48  1  0
 30 49  1  0
 30 50  1  0
M  CHG  1   2   1
M  END
>  <meeko>  (2) 
{"is_sidechain": [false], "free_energy": -7.656, "intermolecular_energy": -9.852, "internal_energy": -0.372}

$$$$
cand_056_out
     RDKit          3D

 50 53  0  0  0  0  0  0  0  0999 V2000
   74.6110   44.9880   -9.5330 C   0  0  0  0  0  0  0  0  0  0  0  0
   74.3900   44.3090   -8.2570 N   0  0  0  0  0  0  0  0  0  0  0  0
   75.4460   43.2970   -8.0180 C   0  0  0  0  0  0  0  0  0  0  0  0
   75.2870   42.5900   -6.6510 C   0  0  0  0  0  0  0  0  0  0  0  0
   75.2820   43.5950   -5.5620 N   0  0  0  0  0  0  0  0  0  0  0  0
   75.2740   43.0290   -4.2750 C   0  0  0  0  0  0  0  0  0  0  0  0
   74.1480   42.3530   -3.7670 C   0  0  0  0  0  0  0  0  0  0  0  0
   74.1420   41.7810   -2.4860 C   0  0  0  0  0  0  0  0  0  0  0  0
   72.9510   41.0890   -1.9510 C   0  0  0  0  0  0  0  0  0  0  0  0
   73.2620   39.9010   -1.2990 O   0  0  0  0  0  0  0  0  0  0  0  0
   72.2460   39.1600   -0.7540 C   0  0  0  0  0  0  0  0  0  0  0  0
   72.6050   37.9820   -0.0960 C   0  0  0  0  0  0  0  0  0  0  0  0
   71.6190   37.1780    0.4810 C   0  0  0  0  0  0  0  0  0  0  0  0
   70.2750   37.5520    0.3990 C   0  0  0  0  0  0  0  0  0  0  0  0
   69.9200   38.7270   -0.2580 C   0  0  0  0  0  0  0  0  0  0  0  0
   68.5880   39.0320   -0.3020 O   0  0  0  0  0  0  0  0  0  0  0  0
   70.9070   39.5310   -0.8340 C   0  0  0  0  0  0  0  0  0  0  0  0
   70.5770   40.7730   -1.5340 C   0  0  0  0  0  0  0  0  0  0  0  0
   69.4180   41.1650   -1.6540 O   0  0  0  0  0  0  0  0  0  0  0  0
   71.6980   41.5570   -2.1030 C   0  0  0  0  0  0  0  0  0  0  0  0
   71.3750   42.7220   -2.7740 O   0  0  0  0  0  0  0  0  0  0  0  0
   75.2870   41.9100   -1.6940 C   0  0  0  0  0  0  0  0  0  0  0  0
   76.4120   42.5800   -2.1780 C   0  0  0  0  0  0  0  0  0  0  0  0
   76.4190   43.1440   -3.4680 C   0  0  0  0  0  0  0  0  0  0  0  0
   77.6490   43.8610   -3.9690 C   0  0  0  0  0  0  0  0  0  0  0  0
   78.5890   44.0410   -2.9890 F   0  0  0  0  0  0  0  0  0  0  0  0
   77.3980   45.1150   -4.4440 F   0  0  0  0  0  0  0  0  0  0  0  0
   78.3070   43.1950   -4.9630 F   0  0  0  0  0  0  0  0  0  0  0  0
   74.2180   44.6070   -5.7630 C   0  0  0  0  0  0  0  0  0  0  0  0
   74.3910   45.2860   -7.1430 C   0  0  0  0  0  0  0  0  0  0  0  0
   74.9465   46.0188   -9.3465 H   0  0  0  0  0  0  0  0  0  0  0  0
   75.3804   44.4500  -10.1062 H   0  0  0  0  0  0  0  0  0  0  0  0
   73.6723   45.0060  -10.1062 H   0  0  0  0  0  0  0  0  0  0  0  0
   73.4820   43.8470   -8.3010 H   0  0  0  0  0  0  0  0  0  0  0  0
   75.3969   42.5403   -8.8149 H   0  0  0  0  0  0  0  0  0  0  0  0
   76.4150   43.8176   -8.0156 H   0  0  0  0  0  0  0  0  0  0  0  0
   74.3392   42.0319   -6.6369 H   0  0  0  0  0  0  0  0  0  0  0  0
   76.1282   41.8972   -6.5011 H   0  0  0  0  0  0  0  0  0  0  0  0
   73.2470   42.2711   -4.3927 H   0  0  0  0  0  0  0  0  0  0  0  0
   73.6629   37.6874   -0.0320 H   0  0  0  0  0  0  0  0  0  0  0  0
   71.9007   36.2500    1.0002 H   0  0  0  0  0  0  0  0  0  0  0  0
   69.4985   36.9188    0.8530 H   0  0  0  0  0  0  0  0  0  0  0  0
   68.2360   39.6780    0.2790 H   0  0  0  0  0  0  0  0  0  0  0  0
   71.5870   42.8140   -3.6820 H   0  0  0  0  0  0  0  0  0  0  0  0
   75.3015   41.4802   -0.6816 H   0  0  0  0  0  0  0  0  0  0  0  0
   77.3055   42.6685   -1.5426 H   0  0  0  0  0  0  0  0  0  0  0  0
   73.2346   44.1161   -5.7187 H   0  0  0  0  0  0  0  0  0  0  0  0
   74.2890   45.3690   -4.9729 H   0  0  0  0  0  0  0  0  0  0  0  0
   73.5637   45.9950   -7.2941 H   0  0  0  0  0  0  0  0  0  0  0  0
   75.3651   45.7970   -7.1458 H   0  0  0  0  0  0  0  0  0  0  0  0
  1  2  1  0
  2  3  1  0
  3  4  1  0
  4  5  1  0
  5  6  1  0
  6  7  2  0
  7  8  1  0
  8  9  1  0
  9 10  1  0
 10 11  1  0
 11 12  2  0
 12 13  1  0
 13 14  2  0
 14 15  1  0
 15 16  1  0
 15 17  2  0
 17 18  1  0
 18 19  2  0
 18 20  1  0
 20 21  1  0
  8 22  2  0
 22 23  1  0
 23 24  2  0
 24 25  1  0
 25 26  1  0
 25 27  1  0
 25 28  1  0
  5 29  1  0
 29 30  1  0
 30  2  1  0
 24  6  1  0
 20  9  2  0
 17 11  1  0
  1 31  1  0
  1 32  1  0
  1 33  1  0
  2 34  1  0
  3 35  1  0
  3 36  1  0
  4 37  1  0
  4 38  1  0
  7 39  1  0
 12 40  1  0
 13 41  1  0
 14 42  1  0
 16 43  1  0
 21 44  1  0
 22 45  1  0
 23 46  1  0
 29 47  1  0
 29 48  1  0
 30 49  1  0
 30 50  1  0
M  CHG  1   2   1
M  END
>  <meeko>  (3) 
{"is_sidechain": [false], "free_energy": -7.649, "intermolecular_energy": -9.78, "internal_energy": -0.436}

$$$$
cand_056_out
     RDKit          3D

 50 53  0  0  0  0  0  0  0  0999 V2000
   65.7870   45.0780   -6.8120 C   0  0  0  0  0  0  0  0  0  0  0  0
   66.8860   44.4510   -6.0780 N   0  0  0  0  0  0  0  0  0  0  0  0
   68.1310   44.4800   -6.8810 C   0  0  0  0  0  0  0  0  0  0  0  0
   69.3380   43.8780   -6.1220 C   0  0  0  0  0  0  0  0  0  0  0  0
   69.5350   44.5970   -4.8420 N   0  0  0  0  0  0  0  0  0  0  0  0
   70.6920   44.2000   -4.1470 C   0  0  0  0  0  0  0  0  0  0  0  0
   70.7660   42.9710   -3.4640 C   0  0  0  0  0  0  0  0  0  0  0  0
   71.9230   42.5710   -2.7800 C   0  0  0  0  0  0  0  0  0  0  0  0
   71.9870   41.2890   -2.0490 C   0  0  0  0  0  0  0  0  0  0  0  0
   70.7730   40.9310   -1.4750 O   0  0  0  0  0  0  0  0  0  0  0  0
   70.6950   39.7590   -0.7670 C   0  0  0  0  0  0  0  0  0  0  0  0
   69.4530   39.4320   -0.2200 C   0  0  0  0  0  0  0  0  0  0  0  0
   69.3040   38.2530    0.5140 C   0  0  0  0  0  0  0  0  0  0  0  0
   70.3970   37.4030    0.7020 C   0  0  0  0  0  0  0  0  0  0  0  0
   71.6340   37.7320    0.1560 C   0  0  0  0  0  0  0  0  0  0  0  0
   72.6610   36.8560    0.3790 O   0  0  0  0  0  0  0  0  0  0  0  0
   71.7820   38.9110   -0.5790 C   0  0  0  0  0  0  0  0  0  0  0  0
   73.0660   39.2950   -1.1690 C   0  0  0  0  0  0  0  0  0  0  0  0
   74.0740   38.6040   -1.0420 O   0  0  0  0  0  0  0  0  0  0  0  0
   73.1150   40.5610   -1.9370 C   0  0  0  0  0  0  0  0  0  0  0  0
   74.3340   40.9220   -2.4800 O   0  0  0  0  0  0  0  0  0  0  0  0
   73.0210   43.4370   -2.7660 C   0  0  0  0  0  0  0  0  0  0  0  0
   72.9660   44.6610   -3.4340 C   0  0  0  0  0  0  0  0  0  0  0  0
   71.8080   45.0550   -4.1300 C   0  0  0  0  0  0  0  0  0  0  0  0
   71.7760   46.3830   -4.8470 C   0  0  0  0  0  0  0  0  0  0  0  0
   72.9190   47.1120   -4.6550 F   0  0  0  0  0  0  0  0  0  0  0  0
   70.7670   47.2040   -4.4340 F   0  0  0  0  0  0  0  0  0  0  0  0
   71.6560   46.2740   -6.2020 F   0  0  0  0  0  0  0  0  0  0  0  0
   68.3120   44.5610   -4.0060 C   0  0  0  0  0  0  0  0  0  0  0  0
   67.1180   45.1530   -4.7940 C   0  0  0  0  0  0  0  0  0  0  0  0
   65.0595   45.4930   -6.0989 H   0  0  0  0  0  0  0  0  0  0  0  0
   66.1826   45.8863   -7.4445 H   0  0  0  0  0  0  0  0  0  0  0  0
   65.2925   44.3261   -7.4445 H   0  0  0  0  0  0  0  0  0  0  0  0
   66.6260   43.4820   -5.8910 H   0  0  0  0  0  0  0  0  0  0  0  0
   67.9699   43.9022   -7.8031 H   0  0  0  0  0  0  0  0  0  0  0  0
   68.3640   45.5325   -7.0997 H   0  0  0  0  0  0  0  0  0  0  0  0
   69.1472   42.8141   -5.9176 H   0  0  0  0  0  0  0  0  0  0  0  0
   70.2428   43.9803   -6.7391 H   0  0  0  0  0  0  0  0  0  0  0  0
   69.8905   42.3050   -3.4670 H   0  0  0  0  0  0  0  0  0  0  0  0
   68.5929   40.1018   -0.3668 H   0  0  0  0  0  0  0  0  0  0  0  0
   68.3255   37.9935    0.9444 H   0  0  0  0  0  0  0  0  0  0  0  0
   70.2798   36.4750    1.2808 H   0  0  0  0  0  0  0  0  0  0  0  0
   73.2070   36.5840   -0.3330 H   0  0  0  0  0  0  0  0  0  0  0  0
   75.1090   40.4500   -2.2460 H   0  0  0  0  0  0  0  0  0  0  0  0
   73.9348   43.1512   -2.2244 H   0  0  0  0  0  0  0  0  0  0  0  0
   73.8407   45.3277   -3.4163 H   0  0  0  0  0  0  0  0  0  0  0  0
   68.0879   43.5195   -3.7321 H   0  0  0  0  0  0  0  0  0  0  0  0
   68.4772   45.1572   -3.0964 H   0  0  0  0  0  0  0  0  0  0  0  0
   66.2112   45.0698   -4.1769 H   0  0  0  0  0  0  0  0  0  0  0  0
   67.3542   46.2026   -5.0231 H   0  0  0  0  0  0  0  0  0  0  0  0
  1  2  1  0
  2  3  1  0
  3  4  1  0
  4  5  1  0
  5  6  1  0
  6  7  2  0
  7  8  1  0
  8  9  1  0
  9 10  1  0
 10 11  1  0
 11 12  2  0
 12 13  1  0
 13 14  2  0
 14 15  1  0
 15 16  1  0
 15 17  2  0
 17 18  1  0
 18 19  2  0
 18 20  1  0
 20 21  1  0
  8 22  2  0
 22 23  1  0
 23 24  2  0
 24 25  1  0
 25 26  1  0
 25 27  1  0
 25 28  1  0
  5 29  1  0
 29 30  1  0
 30  2  1  0
 24  6  1  0
 20  9  2  0
 17 11  1  0
  1 31  1  0
  1 32  1  0
  1 33  1  0
  2 34  1  0
  3 35  1  0
  3 36  1  0
  4 37  1  0
  4 38  1  0
  7 39  1  0
 12 40  1  0
 13 41  1  0
 14 42  1  0
 16 43  1  0
 21 44  1  0
 22 45  1  0
 23 46  1  0
 29 47  1  0
 29 48  1  0
 30 49  1  0
 30 50  1  0
M  CHG  1   2   1
M  END
>  <meeko>  (4) 
{"is_sidechain": [false], "free_energy": -7.601, "intermolecular_energy": -9.842, "internal_energy": -0.314}

$$$$
cand_056_out
     RDKit          3D

 50 53  0  0  0  0  0  0  0  0999 V2000
   75.0730   45.5930   -6.2370 C   0  0  0  0  0  0  0  0  0  0  0  0
   74.1060   44.8020   -5.4760 N   0  0  0  0  0  0  0  0  0  0  0  0
   73.0840   45.6820   -4.8630 C   0  0  0  0  0  0  0  0  0  0  0  0
   72.0040   44.8840   -4.0930 C   0  0  0  0  0  0  0  0  0  0  0  0
   71.3620   43.9030   -4.9990 N   0  0  0  0  0  0  0  0  0  0  0  0
   70.2770   43.2250   -4.4150 C   0  0  0  0  0  0  0  0  0  0  0  0
   70.4620   42.2040   -3.4640 C   0  0  0  0  0  0  0  0  0  0  0  0
   69.3800   41.5340   -2.8740 C   0  0  0  0  0  0  0  0  0  0  0  0
   69.5820   40.4500   -1.8900 C   0  0  0  0  0  0  0  0  0  0  0  0
   70.8940   39.9940   -1.8480 O   0  0  0  0  0  0  0  0  0  0  0  0
   71.2180   38.9880   -0.9740 C   0  0  0  0  0  0  0  0  0  0  0  0
   72.5500   38.5710   -0.9550 C   0  0  0  0  0  0  0  0  0  0  0  0
   72.9470   37.5490   -0.0900 C   0  0  0  0  0  0  0  0  0  0  0  0
   72.0130   36.9450    0.7550 C   0  0  0  0  0  0  0  0  0  0  0  0
   70.6860   37.3620    0.7330 C   0  0  0  0  0  0  0  0  0  0  0  0
   69.8240   36.7270    1.5850 O   0  0  0  0  0  0  0  0  0  0  0  0
   70.2880   38.3850   -0.1320 C   0  0  0  0  0  0  0  0  0  0  0  0
   68.9030   38.8530   -0.1870 C   0  0  0  0  0  0  0  0  0  0  0  0
   68.0220   38.3670    0.5190 O   0  0  0  0  0  0  0  0  0  0  0  0
   68.5870   39.9490   -1.1330 C   0  0  0  0  0  0  0  0  0  0  0  0
   67.2740   40.3750   -1.1870 O   0  0  0  0  0  0  0  0  0  0  0  0
   68.0850   41.8850   -3.2670 C   0  0  0  0  0  0  0  0  0  0  0  0
   67.8810   42.8920   -4.2120 C   0  0  0  0  0  0  0  0  0  0  0  0
   68.9680   43.5710   -4.7940 C   0  0  0  0  0  0  0  0  0  0  0  0
   68.7190   44.6580   -5.8110 C   0  0  0  0  0  0  0  0  0  0  0  0
   67.3860   44.8970   -6.0120 F   0  0  0  0  0  0  0  0  0  0  0  0
   69.2110   44.3710   -7.0520 F   0  0  0  0  0  0  0  0  0  0  0  0
   69.2400   45.8700   -5.4600 F   0  0  0  0  0  0  0  0  0  0  0  0
   72.3600   42.9920   -5.6080 C   0  0  0  0  0  0  0  0  0  0  0  0
   73.4360   43.8160   -6.3560 C   0  0  0  0  0  0  0  0  0  0  0  0
   75.7330   46.1329   -5.5420 H   0  0  0  0  0  0  0  0  0  0  0  0
   75.6752   44.9253   -6.8706 H   0  0  0  0  0  0  0  0  0  0  0  0
   74.5379   46.3157   -6.8706 H   0  0  0  0  0  0  0  0  0  0  0  0
   74.6130   44.3080   -4.7410 H   0  0  0  0  0  0  0  0  0  0  0  0
   73.5827   46.3682   -4.1627 H   0  0  0  0  0  0  0  0  0  0  0  0
   72.5820   46.2293   -5.6745 H   0  0  0  0  0  0  0  0  0  0  0  0
   72.4734   44.3518   -3.2525 H   0  0  0  0  0  0  0  0  0  0  0  0
   71.2414   45.5795   -3.7126 H   0  0  0  0  0  0  0  0  0  0  0  0
   71.4855   41.9231   -3.1748 H   0  0  0  0  0  0  0  0  0  0  0  0
   73.2857   39.0466   -1.6202 H   0  0  0  0  0  0  0  0  0  0  0  0
   73.9963   37.2193   -0.0741 H   0  0  0  0  0  0  0  0  0  0  0  0
   72.3263   36.1407    1.4369 H   0  0  0  0  0  0  0  0  0  0  0  0
   70.0080   35.8540    1.8730 H   0  0  0  0  0  0  0  0  0  0  0  0
   66.6550   40.0690   -0.5540 H   0  0  0  0  0  0  0  0  0  0  0  0
   67.2210   41.3641   -2.8286 H   0  0  0  0  0  0  0  0  0  0  0  0
   66.8553   43.1589   -4.5063 H   0  0  0  0  0  0  0  0  0  0  0  0
   72.8404   42.3962   -4.8179 H   0  0  0  0  0  0  0  0  0  0  0  0
   71.8541   42.3241   -6.3207 H   0  0  0  0  0  0  0  0  0  0  0  0
   74.1943   43.1266   -6.7555 H   0  0  0  0  0  0  0  0  0  0  0  0
   72.9328   44.3723   -7.1606 H   0  0  0  0  0  0  0  0  0  0  0  0
  1  2  1  0
  2  3  1  0
  3  4  1  0
  4  5  1  0
  5  6  1  0
  6  7  2  0
  7  8  1  0
  8  9  1  0
  9 10  1  0
 10 11  1  0
 11 12  2  0
 12 13  1  0
 13 14  2  0
 14 15  1  0
 15 16  1  0
 15 17  2  0
 17 18  1  0
 18 19  2  0
 18 20  1  0
 20 21  1  0
  8 22  2  0
 22 23  1  0
 23 24  2  0
 24 25  1  0
 25 26  1  0
 25 27  1  0
 25 28  1  0
  5 29  1  0
 29 30  1  0
 30  2  1  0
 24  6  1  0
 20  9  2  0
 17 11  1  0
  1 31  1  0
  1 32  1  0
  1 33  1  0
  2 34  1  0
  3 35  1  0
  3 36  1  0
  4 37  1  0
  4 38  1  0
  7 39  1  0
 12 40  1  0
 13 41  1  0
 14 42  1  0
 16 43  1  0
 21 44  1  0
 22 45  1  0
 23 46  1  0
 29 47  1  0
 29 48  1  0
 30 49  1  0
 30 50  1  0
M  CHG  1   2   1
M  END
>  <meeko>  (5) 
{"is_sidechain": [false], "free_energy": -7.547, "intermolecular_energy": -9.996, "internal_energy": -0.093}

$$$$
cand_056_out
     RDKit          3D

 50 53  0  0  0  0  0  0  0  0999 V2000
   75.6680   48.8680   -2.2830 C   0  0  0  0  0  0  0  0  0  0  0  0
   75.0530   47.5490   -2.4240 N   0  0  0  0  0  0  0  0  0  0  0  0
   73.8290   47.6320   -3.2550 C   0  0  0  0  0  0  0  0  0  0  0  0
   73.1730   46.2490   -3.4800 C   0  0  0  0  0  0  0  0  0  0  0  0
   74.1520   45.3230   -4.0970 N   0  0  0  0  0  0  0  0  0  0  0  0
   73.6000   44.0800   -4.4570 C   0  0  0  0  0  0  0  0  0  0  0  0
   72.8960   43.2830   -3.5340 C   0  0  0  0  0  0  0  0  0  0  0  0
   72.3380   42.0480   -3.8950 C   0  0  0  0  0  0  0  0  0  0  0  0
   71.6170   41.2070   -2.9170 C   0  0  0  0  0  0  0  0  0  0  0  0
   72.4080   40.1970   -2.3830 O   0  0  0  0  0  0  0  0  0  0  0  0
   71.8610   39.3440   -1.4600 C   0  0  0  0  0  0  0  0  0  0  0  0
   72.6960   38.3530   -0.9400 C   0  0  0  0  0  0  0  0  0  0  0  0
   72.2010   37.4500    0.0030 C   0  0  0  0  0  0  0  0  0  0  0  0
   70.8720   37.5360    0.4250 C   0  0  0  0  0  0  0  0  0  0  0  0
   70.0410   38.5240   -0.0960 C   0  0  0  0  0  0  0  0  0  0  0  0
   68.7510   38.5510    0.3590 O   0  0  0  0  0  0  0  0  0  0  0  0
   70.5370   39.4290   -1.0390 C   0  0  0  0  0  0  0  0  0  0  0  0
   69.6980   40.4810   -1.6120 C   0  0  0  0  0  0  0  0  0  0  0  0
   68.5170   40.6180   -1.2980 O   0  0  0  0  0  0  0  0  0  0  0  0
   70.3220   41.3940   -2.5990 C   0  0  0  0  0  0  0  0  0  0  0  0
   69.5180   42.3770   -3.1440 O   0  0  0  0  0  0  0  0  0  0  0  0
   72.5100   41.5980   -5.2070 C   0  0  0  0  0  0  0  0  0  0  0  0
   73.2080   42.3720   -6.1360 C   0  0  0  0  0  0  0  0  0  0  0  0
   73.7570   43.6160   -5.7740 C   0  0  0  0  0  0  0  0  0  0  0  0
   74.5050   44.4350   -6.7980 C   0  0  0  0  0  0  0  0  0  0  0  0
   74.4960   43.8590   -8.0410 F   0  0  0  0  0  0  0  0  0  0  0  0
   75.8270   44.6060   -6.5040 F   0  0  0  0  0  0  0  0  0  0  0  0
   73.9860   45.6830   -6.9900 F   0  0  0  0  0  0  0  0  0  0  0  0
   75.3770   45.2000   -3.2730 C   0  0  0  0  0  0  0  0  0  0  0  0
   76.0030   46.5980   -3.0490 C   0  0  0  0  0  0  0  0  0  0  0  0
   75.7800   49.1081   -1.2154 H   0  0  0  0  0  0  0  0  0  0  0  0
   76.6574   48.8646   -2.7638 H   0  0  0  0  0  0  0  0  0  0  0  0
   75.0293   49.6236   -2.7638 H   0  0  0  0  0  0  0  0  0  0  0  0
   74.8070   47.2160   -1.4910 H   0  0  0  0  0  0  0  0  0  0  0  0
   73.1043   48.2889   -2.7516 H   0  0  0  0  0  0  0  0  0  0  0  0
   74.1184   48.0296   -4.2390 H   0  0  0  0  0  0  0  0  0  0  0  0
   72.8425   45.8401   -2.5138 H   0  0  0  0  0  0  0  0  0  0  0  0
   72.3081   46.3622   -4.1501 H   0  0  0  0  0  0  0  0  0  0  0  0
   72.7804   43.6394   -2.4998 H   0  0  0  0  0  0  0  0  0  0  0  0
   73.7422   38.2838   -1.2727 H   0  0  0  0  0  0  0  0  0  0  0  0
   72.8584   36.6698    0.4142 H   0  0  0  0  0  0  0  0  0  0  0  0
   70.4828   36.8241    1.1678 H   0  0  0  0  0  0  0  0  0  0  0  0
   68.0600   38.8320   -0.2090 H   0  0  0  0  0  0  0  0  0  0  0  0
   69.6600   42.6640   -4.0250 H   0  0  0  0  0  0  0  0  0  0  0  0
   72.0922   40.6266   -5.5100 H   0  0  0  0  0  0  0  0  0  0  0  0
   73.3305   42.0041   -7.1654 H   0  0  0  0  0  0  0  0  0  0  0  0
   75.1194   44.7555   -2.3004 H   0  0  0  0  0  0  0  0  0  0  0  0
   76.1018   44.5577   -3.7947 H   0  0  0  0  0  0  0  0  0  0  0  0
   76.8794   46.4916   -2.3928 H   0  0  0  0  0  0  0  0  0  0  0  0
   76.2830   47.0017   -4.0332 H   0  0  0  0  0  0  0  0  0  0  0  0
  1  2  1  0
  2  3  1  0
  3  4  1  0
  4  5  1  0
  5  6  1  0
  6  7  2  0
  7  8  1  0
  8  9  1  0
  9 10  1  0
 10 11  1  0
 11 12  2  0
 12 13  1  0
 13 14  2  0
 14 15  1  0
 15 16  1  0
 15 17  2  0
 17 18  1  0
 18 19  2  0
 18 20  1  0
 20 21  1  0
  8 22  2  0
 22 23  1  0
 23 24  2  0
 24 25  1  0
 25 26  1  0
 25 27  1  0
 25 28  1  0
  5 29  1  0
 29 30  1  0
 30  2  1  0
 24  6  1  0
 20  9  2  0
 17 11  1  0
  1 31  1  0
  1 32  1  0
  1 33  1  0
  2 34  1  0
  3 35  1  0
  3 36  1  0
  4 37  1  0
  4 38  1  0
  7 39  1  0
 12 40  1  0
 13 41  1  0
 14 42  1  0
 16 43  1  0
 21 44  1  0
 22 45  1  0
 23 46  1  0
 29 47  1  0
 29 48  1  0
 30 49  1  0
 30 50  1  0
M  CHG  1   2   1
M  END
>  <meeko>  (6) 
{"is_sidechain": [false], "free_energy": -7.435, "intermolecular_energy": -9.159, "internal_energy": -0.791}

$$$$
cand_056_out
     RDKit          3D

 50 53  0  0  0  0  0  0  0  0999 V2000
   72.1120   48.2590   -5.9820 C   0  0  0  0  0  0  0  0  0  0  0  0
   72.2170   47.0140   -5.2220 N   0  0  0  0  0  0  0  0  0  0  0  0
   72.7110   45.9170   -6.0870 C   0  0  0  0  0  0  0  0  0  0  0  0
   72.8930   44.5900   -5.3120 C   0  0  0  0  0  0  0  0  0  0  0  0
   73.8120   44.7970   -4.1690 N   0  0  0  0  0  0  0  0  0  0  0  0
   74.1370   43.6110   -3.4870 C   0  0  0  0  0  0  0  0  0  0  0  0
   73.1510   42.7990   -2.8940 C   0  0  0  0  0  0  0  0  0  0  0  0
   73.4740   41.6110   -2.2220 C   0  0  0  0  0  0  0  0  0  0  0  0
   72.4360   40.7730   -1.5860 C   0  0  0  0  0  0  0  0  0  0  0  0
   72.9450   39.5980   -1.0460 O   0  0  0  0  0  0  0  0  0  0  0  0
   72.0870   38.7290   -0.4230 C   0  0  0  0  0  0  0  0  0  0  0  0
   72.6440   37.5690    0.1180 C   0  0  0  0  0  0  0  0  0  0  0  0
   71.8240   36.6400    0.7640 C   0  0  0  0  0  0  0  0  0  0  0  0
   70.4510   36.8700    0.8680 C   0  0  0  0  0  0  0  0  0  0  0  0
   69.8990   38.0280    0.3270 C   0  0  0  0  0  0  0  0  0  0  0  0
   68.5470   38.1910    0.4630 O   0  0  0  0  0  0  0  0  0  0  0  0
   70.7180   38.9580   -0.3190 C   0  0  0  0  0  0  0  0  0  0  0  0
   70.1780   40.1870   -0.9020 C   0  0  0  0  0  0  0  0  0  0  0  0
   68.9800   40.4580   -0.8570 O   0  0  0  0  0  0  0  0  0  0  0  0
   71.1330   41.1100   -1.5580 C   0  0  0  0  0  0  0  0  0  0  0  0
   70.6130   42.2620   -2.1170 O   0  0  0  0  0  0  0  0  0  0  0  0
   74.8200   41.2440   -2.1270 C   0  0  0  0  0  0  0  0  0  0  0  0
   75.8130   42.0380   -2.7050 C   0  0  0  0  0  0  0  0  0  0  0  0
   75.4850   43.2230   -3.3890 C   0  0  0  0  0  0  0  0  0  0  0  0
   76.5780   44.0620   -4.0070 C   0  0  0  0  0  0  0  0  0  0  0  0
   77.8200   43.5060   -3.8510 F   0  0  0  0  0  0  0  0  0  0  0  0
   76.6850   45.3100   -3.4630 F   0  0  0  0  0  0  0  0  0  0  0  0
   76.4410   44.2380   -5.3540 F   0  0  0  0  0  0  0  0  0  0  0  0
   73.3290   45.8720   -3.2720 C   0  0  0  0  0  0  0  0  0  0  0  0
   73.1390   47.1820   -4.0750 C   0  0  0  0  0  0  0  0  0  0  0  0
   72.0404   49.1082   -5.2865 H   0  0  0  0  0  0  0  0  0  0  0  0
   73.0033   48.3781   -6.6156 H   0  0  0  0  0  0  0  0  0  0  0  0
   71.2134   48.2271   -6.6156 H   0  0  0  0  0  0  0  0  0  0  0  0
   71.2860   46.7780   -4.8750 H   0  0  0  0  0  0  0  0  0  0  0  0
   71.9875   45.7550   -6.8996 H   0  0  0  0  0  0  0  0  0  0  0  0
   73.6955   46.2151   -6.4768 H   0  0  0  0  0  0  0  0  0  0  0  0
   71.9164   44.2490   -4.9379 H   0  0  0  0  0  0  0  0  0  0  0  0
   73.3178   43.8317   -5.9861 H   0  0  0  0  0  0  0  0  0  0  0  0
   72.0966   43.1054   -2.9598 H   0  0  0  0  0  0  0  0  0  0  0  0
   73.7257   37.3866    0.0360 H   0  0  0  0  0  0  0  0  0  0  0  0
   72.2613   35.7256    1.1914 H   0  0  0  0  0  0  0  0  0  0  0  0
   69.8065   36.1377    1.3764 H   0  0  0  0  0  0  0  0  0  0  0  0
   68.1310   38.9580    0.1220 H   0  0  0  0  0  0  0  0  0  0  0  0
   69.7130   42.2910   -2.3790 H   0  0  0  0  0  0  0  0  0  0  0  0
   75.0987   40.3234   -1.5933 H   0  0  0  0  0  0  0  0  0  0  0  0
   76.8667   41.7325   -2.6243 H   0  0  0  0  0  0  0  0  0  0  0  0
   72.3676   45.5730   -2.8290 H   0  0  0  0  0  0  0  0  0  0  0  0
   74.0692   46.0393   -2.4756 H   0  0  0  0  0  0  0  0  0  0  0  0
   72.7305   47.9516   -3.4035 H   0  0  0  0  0  0  0  0  0  0  0  0
   74.1210   47.4750   -4.4749 H   0  0  0  0  0  0  0  0  0  0  0  0
  1  2  1  0
  2  3  1  0
  3  4  1  0
  4  5  1  0
  5  6  1  0
  6  7  2  0
  7  8  1  0
  8  9  1  0
  9 10  1  0
 10 11  1  0
 11 12  2  0
 12 13  1  0
 13 14  2  0
 14 15  1  0
 15 16  1  0
 15 17  2  0
 17 18  1  0
 18 19  2  0
 18 20  1  0
 20 21  1  0
  8 22  2  0
 22 23  1  0
 23 24  2  0
 24 25  1  0
 25 26  1  0
 25 27  1  0
 25 28  1  0
  5 29  1  0
 29 30  1  0
 30  2  1  0
 24  6  1  0
 20  9  2  0
 17 11  1  0
  1 31  1  0
  1 32  1  0
  1 33  1  0
  2 34  1  0
  3 35  1  0
  3 36  1  0
  4 37  1  0
  4 38  1  0
  7 39  1  0
 12 40  1  0
 13 41  1  0
 14 42  1  0
 16 43  1  0
 21 44  1  0
 22 45  1  0
 23 46  1  0
 29 47  1  0
 29 48  1  0
 30 49  1  0
 30 50  1  0
M  CHG  1   2   1
M  END
>  <meeko>  (7) 
{"is_sidechain": [false], "free_energy": -7.417, "intermolecular_energy": -9.788, "internal_energy": -0.141}

$$$$
cand_056_out
     RDKit          3D

 50 53  0  0  0  0  0  0  0  0999 V2000
   66.3000   46.1600   -7.1850 C   0  0  0  0  0  0  0  0  0  0  0  0
   67.1250   45.3670   -6.2730 N   0  0  0  0  0  0  0  0  0  0  0  0
   68.2450   44.7310   -7.0060 C   0  0  0  0  0  0  0  0  0  0  0  0
   69.1800   43.9260   -6.0720 C   0  0  0  0  0  0  0  0  0  0  0  0
   69.7010   44.8080   -5.0020 N   0  0  0  0  0  0  0  0  0  0  0  0
   70.6630   44.1900   -4.1830 C   0  0  0  0  0  0  0  0  0  0  0  0
   70.3750   43.0270   -3.4430 C   0  0  0  0  0  0  0  0  0  0  0  0
   71.3370   42.4050   -2.6350 C   0  0  0  0  0  0  0  0  0  0  0  0
   71.0230   41.1950   -1.8460 C   0  0  0  0  0  0  0  0  0  0  0  0
   72.1380   40.4010   -1.6060 O   0  0  0  0  0  0  0  0  0  0  0  0
   71.9850   39.2460   -0.8830 C   0  0  0  0  0  0  0  0  0  0  0  0
   73.1340   38.4860   -0.6530 C   0  0  0  0  0  0  0  0  0  0  0  0
   73.0480   37.2970    0.0750 C   0  0  0  0  0  0  0  0  0  0  0  0
   71.8150   36.8690    0.5730 C   0  0  0  0  0  0  0  0  0  0  0  0
   70.6720   37.6280    0.3420 C   0  0  0  0  0  0  0  0  0  0  0  0
   69.4970   37.1500    0.8560 O   0  0  0  0  0  0  0  0  0  0  0  0
   70.7580   38.8180   -0.3860 C   0  0  0  0  0  0  0  0  0  0  0  0
   69.5800   39.6450   -0.6520 C   0  0  0  0  0  0  0  0  0  0  0  0
   68.4600   39.3320   -0.2540 O   0  0  0  0  0  0  0  0  0  0  0  0
   69.7800   40.8920   -1.4270 C   0  0  0  0  0  0  0  0  0  0  0  0
   68.6600   41.6600   -1.6840 O   0  0  0  0  0  0  0  0  0  0  0  0
   72.6100   42.9780   -2.5530 C   0  0  0  0  0  0  0  0  0  0  0  0
   72.9140   44.1330   -3.2760 C   0  0  0  0  0  0  0  0  0  0  0  0
   71.9500   44.7490   -4.0960 C   0  0  0  0  0  0  0  0  0  0  0  0
   72.3060   45.9960   -4.8690 C   0  0  0  0  0  0  0  0  0  0  0  0
   73.6150   46.3610   -4.7050 F   0  0  0  0  0  0  0  0  0  0  0  0
   71.5890   47.0950   -4.4950 F   0  0  0  0  0  0  0  0  0  0  0  0
   72.1460   45.8700   -6.2190 F   0  0  0  0  0  0  0  0  0  0  0  0
   68.6010   45.4380   -4.2350 C   0  0  0  0  0  0  0  0  0  0  0  0
   67.6720   46.2220   -5.1940 C   0  0  0  0  0  0  0  0  0  0  0  0
   65.6273   46.8066   -6.6025 H   0  0  0  0  0  0  0  0  0  0  0  0
   66.9487   46.7823   -7.8190 H   0  0  0  0  0  0  0  0  0  0  0  0
   65.7039   45.4872   -7.8190 H   0  0  0  0  0  0  0  0  0  0  0  0
   66.5340   44.6430   -5.8640 H   0  0  0  0  0  0  0  0  0  0  0  0
   67.8299   44.0494   -7.7631 H   0  0  0  0  0  0  0  0  0  0  0  0
   68.8410   45.5318   -7.4680 H   0  0  0  0  0  0  0  0  0  0  0  0
   68.6177   43.0959   -5.6195 H   0  0  0  0  0  0  0  0  0  0  0  0
   70.0224   43.5278   -6.6567 H   0  0  0  0  0  0  0  0  0  0  0  0
   69.3655   42.5939   -3.5007 H   0  0  0  0  0  0  0  0  0  0  0  0
   74.1051   38.8232   -1.0445 H   0  0  0  0  0  0  0  0  0  0  0  0
   73.9520   36.6971    0.2563 H   0  0  0  0  0  0  0  0  0  0  0  0
   71.7478   35.9331    1.1471 H   0  0  0  0  0  0  0  0  0  0  0  0
   68.6800   37.4960    0.5560 H   0  0  0  0  0  0  0  0  0  0  0  0
   68.5580   42.0760   -2.5180 H   0  0  0  0  0  0  0  0  0  0  0  0
   73.3771   42.5155   -1.9145 H   0  0  0  0  0  0  0  0  0  0  0  0
   73.9217   44.5680   -3.2037 H   0  0  0  0  0  0  0  0  0  0  0  0
   68.0204   44.6573   -3.7218 H   0  0  0  0  0  0  0  0  0  0  0  0
   69.0264   46.1318   -3.4949 H   0  0  0  0  0  0  0  0  0  0  0  0
   66.8350   46.6379   -4.6139 H   0  0  0  0  0  0  0  0  0  0  0  0
   68.2691   47.0166   -5.6652 H   0  0  0  0  0  0  0  0  0  0  0  0
  1  2  1  0
  2  3  1  0
  3  4  1  0
  4  5  1  0
  5  6  1  0
  6  7  2  0
  7  8  1  0
  8  9  1  0
  9 10  1  0
 10 11  1  0
 11 12  2  0
 12 13  1  0
 13 14  2  0
 14 15  1  0
 15 16  1  0
 15 17  2  0
 17 18  1  0
 18 19  2  0
 18 20  1  0
 20 21  1  0
  8 22  2  0
 22 23  1  0
 23 24  2  0
 24 25  1  0
 25 26  1  0
 25 27  1  0
 25 28  1  0
  5 29  1  0
 29 30  1  0
 30  2  1  0
 24  6  1  0
 20  9  2  0
 17 11  1  0
  1 31  1  0
  1 32  1  0
  1 33  1  0
  2 34  1  0
  3 35  1  0
  3 36  1  0
  4 37  1  0
  4 38  1  0
  7 39  1  0
 12 40  1  0
 13 41  1  0
 14 42  1  0
 16 43  1  0
 21 44  1  0
 22 45  1  0
 23 46  1  0
 29 47  1  0
 29 48  1  0
 30 49  1  0
 30 50  1  0
M  CHG  1   2   1
M  END
>  <meeko>  (8) 
{"is_sidechain": [false], "free_energy": -7.403, "intermolecular_energy": -9.637, "internal_energy": -0.275}

$$$$
cand_056_out
     RDKit          3D

 50 53  0  0  0  0  0  0  0  0999 V2000
   63.5820   45.1450   -3.5840 C   0  0  0  0  0  0  0  0  0  0  0  0
   64.8130   44.3560   -3.6000 N   0  0  0  0  0  0  0  0  0  0  0  0
   65.3210   44.2120   -4.9850 C   0  0  0  0  0  0  0  0  0  0  0  0
   66.6550   43.4310   -5.0470 C   0  0  0  0  0  0  0  0  0  0  0  0
   67.6680   44.0960   -4.1940 N   0  0  0  0  0  0  0  0  0  0  0  0
   68.9490   43.5260   -4.2940 C   0  0  0  0  0  0  0  0  0  0  0  0
   69.3560   42.4600   -3.4690 C   0  0  0  0  0  0  0  0  0  0  0  0
   70.6310   41.8850   -3.5750 C   0  0  0  0  0  0  0  0  0  0  0  0
   71.0590   40.7790   -2.6940 C   0  0  0  0  0  0  0  0  0  0  0  0
   70.0610   40.3670   -1.8180 O   0  0  0  0  0  0  0  0  0  0  0  0
   70.3270   39.3450   -0.9440 C   0  0  0  0  0  0  0  0  0  0  0  0
   69.2910   38.9540   -0.0940 C   0  0  0  0  0  0  0  0  0  0  0  0
   69.4960   37.9200    0.8230 C   0  0  0  0  0  0  0  0  0  0  0  0
   70.7350   37.2790    0.8890 C   0  0  0  0  0  0  0  0  0  0  0  0
   71.7660   37.6710    0.0400 C   0  0  0  0  0  0  0  0  0  0  0  0
   72.9530   37.0020    0.1590 O   0  0  0  0  0  0  0  0  0  0  0  0
   71.5610   38.7050   -0.8770 C   0  0  0  0  0  0  0  0  0  0  0  0
   72.6180   39.1490   -1.7870 C   0  0  0  0  0  0  0  0  0  0  0  0
   73.7360   38.6390   -1.7840 O   0  0  0  0  0  0  0  0  0  0  0  0
   72.2950   40.2470   -2.7270 C   0  0  0  0  0  0  0  0  0  0  0  0
   73.3040   40.6680   -3.5730 O   0  0  0  0  0  0  0  0  0  0  0  0
   71.5210   42.4080   -4.5180 C   0  0  0  0  0  0  0  0  0  0  0  0
   71.1380   43.4670   -5.3430 C   0  0  0  0  0  0  0  0  0  0  0  0
   69.8540   44.0350   -5.2420 C   0  0  0  0  0  0  0  0  0  0  0  0
   69.4630   45.1780   -6.1480 C   0  0  0  0  0  0  0  0  0  0  0  0
   70.5480   45.8570   -6.6350 F   0  0  0  0  0  0  0  0  0  0  0  0
   68.7040   46.1310   -5.5330 F   0  0  0  0  0  0  0  0  0  0  0  0
   68.7700   44.7880   -7.2580 F   0  0  0  0  0  0  0  0  0  0  0  0
   67.1960   44.2300   -2.7960 C   0  0  0  0  0  0  0  0  0  0  0  0
   65.8530   45.0000   -2.7640 C   0  0  0  0  0  0  0  0  0  0  0  0
   63.2829   45.3367   -2.5430 H   0  0  0  0  0  0  0  0  0  0  0  0
   63.7532   46.1021   -4.0985 H   0  0  0  0  0  0  0  0  0  0  0  0
   62.7839   44.5898   -4.0985 H   0  0  0  0  0  0  0  0  0  0  0  0
   64.5990   43.4330   -3.2210 H   0  0  0  0  0  0  0  0  0  0  0  0
   64.5695   43.6752   -5.5826 H   0  0  0  0  0  0  0  0  0  0  0  0
   65.5054   45.2217   -5.3807 H   0  0  0  0  0  0  0  0  0  0  0  0
   66.4934   42.4038   -4.6882 H   0  0  0  0  0  0  0  0  0  0  0  0
   67.0143   43.4092   -6.0864 H   0  0  0  0  0  0  0  0  0  0  0  0
   68.6535   42.0666   -2.7195 H   0  0  0  0  0  0  0  0  0  0  0  0
   68.3152   39.4590   -0.1461 H   0  0  0  0  0  0  0  0  0  0  0  0
   68.6808   37.6105    1.4936 H   0  0  0  0  0  0  0  0  0  0  0  0
   70.8960   36.4651    1.6112 H   0  0  0  0  0  0  0  0  0  0  0  0
   73.5940   37.2910    0.7790 H   0  0  0  0  0  0  0  0  0  0  0  0
   73.6520   40.0820   -4.2160 H   0  0  0  0  0  0  0  0  0  0  0  0
   72.5308   41.9817   -4.6105 H   0  0  0  0  0  0  0  0  0  0  0  0
   71.8496   43.8632   -6.0824 H   0  0  0  0  0  0  0  0  0  0  0  0
   67.0530   43.2294   -2.3619 H   0  0  0  0  0  0  0  0  0  0  0  0
   67.9454   44.7851   -2.2127 H   0  0  0  0  0  0  0  0  0  0  0  0
   65.4947   45.0424   -1.7248 H   0  0  0  0  0  0  0  0  0  0  0  0
   66.0336   46.0065   -3.1694 H   0  0  0  0  0  0  0  0  0  0  0  0
  1  2  1  0
  2  3  1  0
  3  4  1  0
  4  5  1  0
  5  6  1  0
  6  7  2  0
  7  8  1  0
  8  9  1  0
  9 10  1  0
 10 11  1  0
 11 12  2  0
 12 13  1  0
 13 14  2  0
 14 15  1  0
 15 16  1  0
 15 17  2  0
 17 18  1  0
 18 19  2  0
 18 20  1  0
 20 21  1  0
  8 22  2  0
 22 23  1  0
 23 24  2  0
 24 25  1  0
 25 26  1  0
 25 27  1  0
 25 28  1  0
  5 29  1  0
 29 30  1  0
 30  2  1  0
 24  6  1  0
 20  9  2  0
 17 11  1  0
  1 31  1  0
  1 32  1  0
  1 33  1  0
  2 34  1  0
  3 35  1  0
  3 36  1  0
  4 37  1  0
  4 38  1  0
  7 39  1  0
 12 40  1  0
 13 41  1  0
 14 42  1  0
 16 43  1  0
 21 44  1  0
 22 45  1  0
 23 46  1  0
 29 47  1  0
 29 48  1  0
 30 49  1  0
 30 50  1  0
M  CHG  1   2   1
M  END
>  <meeko>  (9) 
{"is_sidechain": [false], "free_energy": -7.388, "intermolecular_energy": -10.05, "internal_energy": 0.156}

$$$$
