cand_010_out
     RDKit          3D

 35 37  0  0  0  0  0  0  0  0999 V2000
   66.9270   42.4610   -4.6700 O   0  0  0  0  0  0  0  0  0  0  0  0
   67.9830   42.3570   -4.0470 C   0  0  0  0  0  0  0  0  0  0  0  0
   68.1770   41.2540   -3.0780 C   0  0  0  0  0  0  0  0  0  0  0  0
   67.1350   40.3570   -2.9250 O   0  0  0  0  0  0  0  0  0  0  0  0
   69.3490   41.1750   -2.4210 C   0  0  0  0  0  0  0  0  0  0  0  0
   69.6570   40.1110   -1.4410 C   0  0  0  0  0  0  0  0  0  0  0  0
   68.7280   39.7090   -0.4760 C   0  0  0  0  0  0  0  0  0  0  0  0
   69.0500   38.7200    0.4580 C   0  0  0  0  0  0  0  0  0  0  0  0
   70.3140   38.1110    0.4580 C   0  0  0  0  0  0  0  0  0  0  0  0
   70.6200   37.0410    1.4800 C   0  0  0  0  0  0  0  0  0  0  0  0
   70.3990   35.7760    1.0180 F   0  0  0  0  0  0  0  0  0  0  0  0
   71.2650   38.5070   -0.5080 C   0  0  0  0  0  0  0  0  0  0  0  0
   72.6440   37.8870   -0.5520 C   0  0  0  0  0  0  0  0  0  0  0  0
   72.6370   36.5250   -0.5680 F   0  0  0  0  0  0  0  0  0  0  0  0
   73.3460   38.2690   -1.6550 F   0  0  0  0  0  0  0  0  0  0  0  0
   73.4090   38.2430    0.5160 F   0  0  0  0  0  0  0  0  0  0  0  0
   70.9240   39.5090   -1.4400 C   0  0  0  0  0  0  0  0  0  0  0  0
   70.4020   42.0630   -2.6030 O   0  0  0  0  0  0  0  0  0  0  0  0
   70.2480   43.1000   -3.4870 C   0  0  0  0  0  0  0  0  0  0  0  0
   71.3250   43.9770   -3.6290 C   0  0  0  0  0  0  0  0  0  0  0  0
   71.2350   45.0530   -4.5140 C   0  0  0  0  0  0  0  0  0  0  0  0
   70.0690   45.2530   -5.2560 C   0  0  0  0  0  0  0  0  0  0  0  0
   68.9960   44.3780   -5.1130 C   0  0  0  0  0  0  0  0  0  0  0  0
   67.8860   44.6310   -5.8710 O   0  0  0  0  0  0  0  0  0  0  0  0
   69.0860   43.3010   -4.2270 C   0  0  0  0  0  0  0  0  0  0  0  0
   67.0340   39.8910   -2.1180 H   0  0  0  0  0  0  0  0  0  0  0  0
   67.7325   40.1764   -0.4517 H   0  0  0  0  0  0  0  0  0  0  0  0
   68.3014   38.4147    1.2039 H   0  0  0  0  0  0  0  0  0  0  0  0
   71.6775   37.1272    1.7702 H   0  0  0  0  0  0  0  0  0  0  0  0
   69.9428   37.2003    2.3321 H   0  0  0  0  0  0  0  0  0  0  0  0
   71.6695   39.8261   -2.1841 H   0  0  0  0  0  0  0  0  0  0  0  0
   72.2434   43.8204   -3.0442 H   0  0  0  0  0  0  0  0  0  0  0  0
   72.0834   45.7440   -4.6269 H   0  0  0  0  0  0  0  0  0  0  0  0
   69.9986   46.1012   -5.9528 H   0  0  0  0  0  0  0  0  0  0  0  0
   67.8710   45.3720   -6.4460 H   0  0  0  0  0  0  0  0  0  0  0  0
  1  2  2  0
  2  3  1  0
  3  4  1  0
  3  5  2  0
  5  6  1  0
  6  7  2  0
  7  8  1  0
  8  9  2  0
  9 10  1  0
 10 11  1  0
  9 12  1  0
 12 13  1  0
 13 14  1  0
 13 15  1  0
 13 16  1  0
 12 17  2  0
  5 18  1  0
 18 19  1  0
 19 20  2  0
 20 21  1  0
 21 22  2  0
 22 23  1  0
 23 24  1  0
 23 25  2  0
 25  2  1  0
 17  6  1  0
 25 19  1  0
  4 26  1  0
  7 27  1  0
  8 28  1  0
 10 29  1  0
 10 30  1  0
 17 31  1  0
 20 32  1  0
 21 33  1  0
 22 34  1  0
 24 35  1  0
M  END
>  <meeko>  (1) 
{"is_sidechain": [false], "free_energy": -8.582, "intermolecular_energy": -10.588, "internal_energy": -0.175}

$$$$
cand_010_out
     RDKit          3D

 35 37  0  0  0  0  0  0  0  0999 V2000
   69.5230   43.1250   -5.4800 O   0  0  0  0  0  0  0  0  0  0  0  0
   70.4280   43.0650   -4.6490 C   0  0  0  0  0  0  0  0  0  0  0  0
   70.6050   41.8530   -3.8170 C   0  0  0  0  0  0  0  0  0  0  0  0
   69.7260   40.8070   -4.0300 O   0  0  0  0  0  0  0  0  0  0  0  0
   71.6110   41.8290   -2.9230 C   0  0  0  0  0  0  0  0  0  0  0  0
   71.8880   40.6690   -2.0490 C   0  0  0  0  0  0  0  0  0  0  0  0
   73.1010   39.9760   -2.1090 C   0  0  0  0  0  0  0  0  0  0  0  0
   73.3320   38.8660   -1.2920 C   0  0  0  0  0  0  0  0  0  0  0  0
   72.3510   38.4120   -0.3980 C   0  0  0  0  0  0  0  0  0  0  0  0
   72.6420   37.2120    0.4740 C   0  0  0  0  0  0  0  0  0  0  0  0
   72.2820   36.0280   -0.1000 F   0  0  0  0  0  0  0  0  0  0  0  0
   71.1190   39.0980   -0.3250 C   0  0  0  0  0  0  0  0  0  0  0  0
   70.0250   38.6510    0.6180 C   0  0  0  0  0  0  0  0  0  0  0  0
   69.6600   37.3480    0.4630 F   0  0  0  0  0  0  0  0  0  0  0  0
   70.3840   38.7840    1.9250 F   0  0  0  0  0  0  0  0  0  0  0  0
   68.8820   39.3770    0.4710 F   0  0  0  0  0  0  0  0  0  0  0  0
   70.9030   40.2150   -1.1600 C   0  0  0  0  0  0  0  0  0  0  0  0
   72.5090   42.8740   -2.7370 O   0  0  0  0  0  0  0  0  0  0  0  0
   72.3640   44.0130   -3.4860 C   0  0  0  0  0  0  0  0  0  0  0  0
   73.2780   45.0420   -3.2570 C   0  0  0  0  0  0  0  0  0  0  0  0
   73.1890   46.2290   -3.9880 C   0  0  0  0  0  0  0  0  0  0  0  0
   72.1860   46.3860   -4.9460 C   0  0  0  0  0  0  0  0  0  0  0  0
   71.2740   45.3580   -5.1730 C   0  0  0  0  0  0  0  0  0  0  0  0
   70.3190   45.5790   -6.1270 O   0  0  0  0  0  0  0  0  0  0  0  0
   71.3640   44.1710   -4.4420 C   0  0  0  0  0  0  0  0  0  0  0  0
   70.0250   40.0220   -4.4460 H   0  0  0  0  0  0  0  0  0  0  0  0
   73.8828   40.3086   -2.8077 H   0  0  0  0  0  0  0  0  0  0  0  0
   74.2968   38.3409   -1.3508 H   0  0  0  0  0  0  0  0  0  0  0  0
   73.7218   37.1851    0.6820 H   0  0  0  0  0  0  0  0  0  0  0  0
   72.0459   37.3238    1.3917 H   0  0  0  0  0  0  0  0  0  0  0  0
   69.9388   40.7423   -1.1124 H   0  0  0  0  0  0  0  0  0  0  0  0
   74.0679   44.9186   -2.5015 H   0  0  0  0  0  0  0  0  0  0  0  0
   73.9097   47.0404   -3.8086 H   0  0  0  0  0  0  0  0  0  0  0  0
   72.1159   47.3210   -5.5213 H   0  0  0  0  0  0  0  0  0  0  0  0
   69.4130   45.5990   -5.8860 H   0  0  0  0  0  0  0  0  0  0  0  0
  1  2  2  0
  2  3  1  0
  3  4  1  0
  3  5  2  0
  5  6  1  0
  6  7  2  0
  7  8  1  0
  8  9  2  0
  9 10  1  0
 10 11  1  0
  9 12  1  0
 12 13  1  0
 13 14  1  0
 13 15  1  0
 13 16  1  0
 12 17  2  0
  5 18  1  0
 18 19  1  0
 19 20  2  0
 20 21  1  0
 21 22  2  0
 22 23  1  0
 23 24  1  0
 23 25  2  0
 25  2  1  0
 17  6  1  0
 25 19  1  0
  4 26  1  0
  7 27  1  0
  8 28  1  0
 10 29  1  0
 10 30  1  0
 17 31  1  0
 20 32  1  0
 21 33  1  0
 22 34  1  0
 24 35  1  0
M  END
>  <meeko>  (2) 
{"is_sidechain": [false], "free_energy": -8.208, "intermolecular_energy": -9.95, "internal_energy": -0.352}

$$$$
cand_010_out
     RDKit          3D

 35 37  0  0  0  0  0  0  0  0999 V2000
   68.5880   43.1340   -5.2210 O   0  0  0  0  0  0  0  0  0  0  0  0
   68.3000   42.9040   -4.0480 C   0  0  0  0  0  0  0  0  0  0  0  0
   68.9160   41.7620   -3.3330 C   0  0  0  0  0  0  0  0  0  0  0  0
   69.8250   40.9930   -4.0380 O   0  0  0  0  0  0  0  0  0  0  0  0
   68.5760   41.5480   -2.0490 C   0  0  0  0  0  0  0  0  0  0  0  0
   69.1360   40.4470   -1.2360 C   0  0  0  0  0  0  0  0  0  0  0  0
   68.3160   39.4920   -0.6270 C   0  0  0  0  0  0  0  0  0  0  0  0
   68.8650   38.4750    0.1590 C   0  0  0  0  0  0  0  0  0  0  0  0
   70.2500   38.3900    0.3650 C   0  0  0  0  0  0  0  0  0  0  0  0
   70.8050   37.2710    1.2160 C   0  0  0  0  0  0  0  0  0  0  0  0
   70.6880   36.0430    0.6340 F   0  0  0  0  0  0  0  0  0  0  0  0
   71.0930   39.3480   -0.2400 C   0  0  0  0  0  0  0  0  0  0  0  0
   72.5930   39.3070   -0.0500 C   0  0  0  0  0  0  0  0  0  0  0  0
   73.1310   38.0620   -0.1690 F   0  0  0  0  0  0  0  0  0  0  0  0
   73.2490   40.0850   -0.9540 F   0  0  0  0  0  0  0  0  0  0  0  0
   72.9740   39.7600    1.1760 F   0  0  0  0  0  0  0  0  0  0  0  0
   70.5210   40.3690   -1.0270 C   0  0  0  0  0  0  0  0  0  0  0  0
   67.6840   42.3450   -1.3390 O   0  0  0  0  0  0  0  0  0  0  0  0
   67.0910   43.4040   -1.9770 C   0  0  0  0  0  0  0  0  0  0  0  0
   66.1920   44.1680   -1.2320 C   0  0  0  0  0  0  0  0  0  0  0  0
   65.5540   45.2620   -1.8210 C   0  0  0  0  0  0  0  0  0  0  0  0
   65.8140   45.5920   -3.1520 C   0  0  0  0  0  0  0  0  0  0  0  0
   66.7120   44.8270   -3.8940 C   0  0  0  0  0  0  0  0  0  0  0  0
   66.9220   45.2060   -5.1910 O   0  0  0  0  0  0  0  0  0  0  0  0
   67.3500   43.7330   -3.3050 C   0  0  0  0  0  0  0  0  0  0  0  0
   69.5340   40.2310   -4.5000 H   0  0  0  0  0  0  0  0  0  0  0  0
   67.2262   39.5417   -0.7682 H   0  0  0  0  0  0  0  0  0  0  0  0
   68.2014   37.7304    0.6228 H   0  0  0  0  0  0  0  0  0  0  0  0
   71.8709   37.4693    1.4021 H   0  0  0  0  0  0  0  0  0  0  0  0
   70.2196   37.2480    2.1470 H   0  0  0  0  0  0  0  0  0  0  0  0
   71.1767   41.1223   -1.4881 H   0  0  0  0  0  0  0  0  0  0  0  0
   65.9861   43.9092   -0.1829 H   0  0  0  0  0  0  0  0  0  0  0  0
   64.8450   45.8649   -1.2346 H   0  0  0  0  0  0  0  0  0  0  0  0
   65.3111   46.4542   -3.6144 H   0  0  0  0  0  0  0  0  0  0  0  0
   67.1130   44.5600   -5.8420 H   0  0  0  0  0  0  0  0  0  0  0  0
  1  2  2  0
  2  3  1  0
  3  4  1  0
  3  5  2  0
  5  6  1  0
  6  7  2  0
  7  8  1  0
  8  9  2  0
  9 10  1  0
 10 11  1  0
  9 12  1  0
 12 13  1  0
 13 14  1  0
 13 15  1  0
 13 16  1  0
 12 17  2  0
  5 18  1  0
 18 19  1  0
 19 20  2  0
 20 21  1  0
 21 22  2  0
 22 23  1  0
 23 24  1  0
 23 25  2  0
 25  2  1  0
 17  6  1  0
 25 19  1  0
  4 26  1  0
  7 27  1  0
  8 28  1  0
 10 29  1  0
 10 30  1  0
 17 31  1  0
 20 32  1  0
 21 33  1  0
 22 34  1  0
 24 35  1  0
M  END
>  <meeko>  (3) 
{"is_sidechain": [false], "free_energy": -8.207, "intermolecular_energy": -10.075, "internal_energy": -0.226}

$$$$
cand_010_out
     RDKit          3D

 35 37  0  0  0  0  0  0  0  0999 V2000
   71.9950   43.6870   -5.8800 O   0  0  0  0  0  0  0  0  0  0  0  0
   71.2420   43.0590   -5.1380 C   0  0  0  0  0  0  0  0  0  0  0  0
   71.7610   41.9440   -4.3110 C   0  0  0  0  0  0  0  0  0  0  0  0
   73.1120   41.6640   -4.4050 O   0  0  0  0  0  0  0  0  0  0  0  0
   70.9030   41.2860   -3.5100 C   0  0  0  0  0  0  0  0  0  0  0  0
   71.3110   40.1660   -2.6350 C   0  0  0  0  0  0  0  0  0  0  0  0
   72.3410   39.2900   -2.9920 C   0  0  0  0  0  0  0  0  0  0  0  0
   72.6930   38.2220   -2.1620 C   0  0  0  0  0  0  0  0  0  0  0  0
   72.0170   37.9960   -0.9530 C   0  0  0  0  0  0  0  0  0  0  0  0
   72.4330   36.8350   -0.0800 C   0  0  0  0  0  0  0  0  0  0  0  0
   73.3940   37.1620    0.8320 F   0  0  0  0  0  0  0  0  0  0  0  0
   70.9730   38.8690   -0.5770 C   0  0  0  0  0  0  0  0  0  0  0  0
   70.2090   38.6700    0.7120 C   0  0  0  0  0  0  0  0  0  0  0  0
   70.9630   38.8440    1.8330 F   0  0  0  0  0  0  0  0  0  0  0  0
   69.1620   39.5320    0.8310 F   0  0  0  0  0  0  0  0  0  0  0  0
   69.6750   37.4220    0.8140 F   0  0  0  0  0  0  0  0  0  0  0  0
   70.6300   39.9390   -1.4300 C   0  0  0  0  0  0  0  0  0  0  0  0
   69.5520   41.5940   -3.3990 O   0  0  0  0  0  0  0  0  0  0  0  0
   69.0410   42.6150   -4.1590 C   0  0  0  0  0  0  0  0  0  0  0  0
   67.6780   42.8810   -4.0270 C   0  0  0  0  0  0  0  0  0  0  0  0
   67.0940   43.9090   -4.7710 C   0  0  0  0  0  0  0  0  0  0  0  0
   67.8730   44.6690   -5.6460 C   0  0  0  0  0  0  0  0  0  0  0  0
   69.2330   44.4010   -5.7760 C   0  0  0  0  0  0  0  0  0  0  0  0
   69.9370   45.1850   -6.6490 O   0  0  0  0  0  0  0  0  0  0  0  0
   69.8170   43.3730   -5.0320 C   0  0  0  0  0  0  0  0  0  0  0  0
   73.3980   40.8800   -4.8320 H   0  0  0  0  0  0  0  0  0  0  0  0
   72.8810   39.4435   -3.9380 H   0  0  0  0  0  0  0  0  0  0  0  0
   73.5108   37.5496   -2.4603 H   0  0  0  0  0  0  0  0  0  0  0  0
   71.5475   36.4706    0.4614 H   0  0  0  0  0  0  0  0  0  0  0  0
   72.8599   36.0668   -0.7415 H   0  0  0  0  0  0  0  0  0  0  0  0
   69.8084   40.6118   -1.1431 H   0  0  0  0  0  0  0  0  0  0  0  0
   67.0641   42.2822   -3.3381 H   0  0  0  0  0  0  0  0  0  0  0  0
   66.0194   44.1201   -4.6675 H   0  0  0  0  0  0  0  0  0  0  0  0
   67.4127   45.4783   -6.2318 H   0  0  0  0  0  0  0  0  0  0  0  0
   69.4810   45.7460   -7.2460 H   0  0  0  0  0  0  0  0  0  0  0  0
  1  2  2  0
  2  3  1  0
  3  4  1  0
  3  5  2  0
  5  6  1  0
  6  7  2  0
  7  8  1  0
  8  9  2  0
  9 10  1  0
 10 11  1  0
  9 12  1  0
 12 13  1  0
 13 14  1  0
 13 15  1  0
 13 16  1  0
 12 17  2  0
  5 18  1  0
 18 19  1  0
 19 20  2  0
 20 21  1  0
 21 22  2  0
 22 23  1  0
 23 24  1  0
 23 25  2  0
 25  2  1  0
 17  6  1  0
 25 19  1  0
  4 26  1  0
  7 27  1  0
  8 28  1  0
 10 29  1  0
 10 30  1  0
 17 31  1  0
 20 32  1  0
 21 33  1  0
 22 34  1  0
 24 35  1  0
M  END
>  <meeko>  (4) 
{"is_sidechain": [false], "free_energy": -8.141, "intermolecular_energy": -10.132, "internal_energy": -0.087}

$$$$
cand_010_out
     RDKit          3D

 35 37  0  0  0  0  0  0  0  0999 V2000
   72.1460   37.5750    0.0520 O   0  0  0  0  0  0  0  0  0  0  0  0
   71.7370   38.5440   -0.5850 C   0  0  0  0  0  0  0  0  0  0  0  0
   72.6730   39.3660   -1.3870 C   0  0  0  0  0  0  0  0  0  0  0  0
   74.0020   38.9840   -1.3910 O   0  0  0  0  0  0  0  0  0  0  0  0
   72.1820   40.4150   -2.0710 C   0  0  0  0  0  0  0  0  0  0  0  0
   73.0210   41.2970   -2.9120 C   0  0  0  0  0  0  0  0  0  0  0  0
   72.7380   41.5100   -4.2640 C   0  0  0  0  0  0  0  0  0  0  0  0
   73.5600   42.3270   -5.0470 C   0  0  0  0  0  0  0  0  0  0  0  0
   74.6940   42.9450   -4.4990 C   0  0  0  0  0  0  0  0  0  0  0  0
   75.5530   43.8260   -5.3770 C   0  0  0  0  0  0  0  0  0  0  0  0
   76.6000   43.1620   -5.9480 F   0  0  0  0  0  0  0  0  0  0  0  0
   74.9970   42.7380   -3.1350 C   0  0  0  0  0  0  0  0  0  0  0  0
   76.2070   43.3760   -2.4940 C   0  0  0  0  0  0  0  0  0  0  0  0
   76.2140   44.7370   -2.5590 F   0  0  0  0  0  0  0  0  0  0  0  0
   76.3150   43.0670   -1.1720 F   0  0  0  0  0  0  0  0  0  0  0  0
   77.3740   42.9710   -3.0670 F   0  0  0  0  0  0  0  0  0  0  0  0
   74.1570   41.9080   -2.3620 C   0  0  0  0  0  0  0  0  0  0  0  0
   70.8390   40.7740   -2.0850 O   0  0  0  0  0  0  0  0  0  0  0  0
   69.9490   40.0370   -1.3450 C   0  0  0  0  0  0  0  0  0  0  0  0
   68.6140   40.4400   -1.3760 C   0  0  0  0  0  0  0  0  0  0  0  0
   67.6560   39.7320   -0.6460 C   0  0  0  0  0  0  0  0  0  0  0  0
   68.0340   38.6230    0.1130 C   0  0  0  0  0  0  0  0  0  0  0  0
   69.3670   38.2230    0.1430 C   0  0  0  0  0  0  0  0  0  0  0  0
   69.6670   37.1270    0.9050 O   0  0  0  0  0  0  0  0  0  0  0  0
   70.3250   38.9310   -0.5880 C   0  0  0  0  0  0  0  0  0  0  0  0
   74.5840   39.3220   -2.0440 H   0  0  0  0  0  0  0  0  0  0  0  0
   71.8586   41.0295   -4.7176 H   0  0  0  0  0  0  0  0  0  0  0  0
   73.3139   42.4872   -6.1071 H   0  0  0  0  0  0  0  0  0  0  0  0
   74.9235   44.2403   -6.1783 H   0  0  0  0  0  0  0  0  0  0  0  0
   75.9769   44.6120   -4.7347 H   0  0  0  0  0  0  0  0  0  0  0  0
   74.3992   41.7363   -1.3028 H   0  0  0  0  0  0  0  0  0  0  0  0
   68.3160   41.3137   -1.9742 H   0  0  0  0  0  0  0  0  0  0  0  0
   66.6028   40.0487   -0.6693 H   0  0  0  0  0  0  0  0  0  0  0  0
   67.2791   38.0656    0.6869 H   0  0  0  0  0  0  0  0  0  0  0  0
   70.3200   37.1880    1.5750 H   0  0  0  0  0  0  0  0  0  0  0  0
  1  2  2  0
  2  3  1  0
  3  4  1  0
  3  5  2  0
  5  6  1  0
  6  7  2  0
  7  8  1  0
  8  9  2  0
  9 10  1  0
 10 11  1  0
  9 12  1  0
 12 13  1  0
 13 14  1  0
 13 15  1  0
 13 16  1  0
 12 17  2  0
  5 18  1  0
 18 19  1  0
 19 20  2  0
 20 21  1  0
 21 22  2  0
 22 23  1  0
 23 24  1  0
 23 25  2  0
 25  2  1  0
 17  6  1  0
 25 19  1  0
  4 26  1  0
  7 27  1  0
  8 28  1  0
 10 29  1  0
 10 30  1  0
 17 31  1  0
 20 32  1  0
 21 33  1  0
 22 34  1  0
 24 35  1  0
M  END
>  <meeko>  (5) 
{"is_sidechain": [false], "free_energy": -7.935, "intermolecular_energy": -9.66, "internal_energy": -0.305}

$$$$
cand_010_out
     RDKit          3D

 35 37  0  0  0  0  0  0  0  0999 V2000
   73.1100   42.1230   -6.0370 O   0  0  0  0  0  0  0  0  0  0  0  0
   73.4040   41.9780   -4.8510 C   0  0  0  0  0  0  0  0  0  0  0  0
   72.7270   40.9470   -4.0300 C   0  0  0  0  0  0  0  0  0  0  0  0
   71.7780   40.1630   -4.6590 O   0  0  0  0  0  0  0  0  0  0  0  0
   73.0820   40.8210   -2.7380 C   0  0  0  0  0  0  0  0  0  0  0  0
   72.4820   39.8200   -1.8290 C   0  0  0  0  0  0  0  0  0  0  0  0
   73.1800   38.6760   -1.4320 C   0  0  0  0  0  0  0  0  0  0  0  0
   72.5850   37.7290   -0.5930 C   0  0  0  0  0  0  0  0  0  0  0  0
   71.2690   37.8970   -0.1360 C   0  0  0  0  0  0  0  0  0  0  0  0
   70.6630   36.8550    0.7750 C   0  0  0  0  0  0  0  0  0  0  0  0
   70.6510   37.2280    2.0880 F   0  0  0  0  0  0  0  0  0  0  0  0
   70.5480   39.0460   -0.5300 C   0  0  0  0  0  0  0  0  0  0  0  0
   69.1260   39.2770   -0.0700 C   0  0  0  0  0  0  0  0  0  0  0  0
   68.3040   38.2070   -0.2580 F   0  0  0  0  0  0  0  0  0  0  0  0
   69.0540   39.5720    1.2580 F   0  0  0  0  0  0  0  0  0  0  0  0
   68.5330   40.3200   -0.7140 F   0  0  0  0  0  0  0  0  0  0  0  0
   71.1650   39.9890   -1.3790 C   0  0  0  0  0  0  0  0  0  0  0  0
   74.0590   41.5940   -2.1220 O   0  0  0  0  0  0  0  0  0  0  0  0
   74.6970   42.5630   -2.8550 C   0  0  0  0  0  0  0  0  0  0  0  0
   75.6600   43.3250   -2.1930 C   0  0  0  0  0  0  0  0  0  0  0  0
   76.3480   44.3270   -2.8820 C   0  0  0  0  0  0  0  0  0  0  0  0
   76.0720   44.5660   -4.2290 C   0  0  0  0  0  0  0  0  0  0  0  0
   75.1100   43.8050   -4.8870 C   0  0  0  0  0  0  0  0  0  0  0  0
   74.8900   44.0910   -6.2070 O   0  0  0  0  0  0  0  0  0  0  0  0
   74.4220   42.8020   -4.1980 C   0  0  0  0  0  0  0  0  0  0  0  0
   71.5820   39.3080   -4.3260 H   0  0  0  0  0  0  0  0  0  0  0  0
   74.2102   38.5188   -1.7840 H   0  0  0  0  0  0  0  0  0  0  0  0
   73.1563   36.8402   -0.2870 H   0  0  0  0  0  0  0  0  0  0  0  0
   69.6269   36.6710    0.4547 H   0  0  0  0  0  0  0  0  0  0  0  0
   71.2867   35.9522    0.6981 H   0  0  0  0  0  0  0  0  0  0  0  0
   70.5993   40.8778   -1.6953 H   0  0  0  0  0  0  0  0  0  0  0  0
   75.8771   43.1374   -1.1311 H   0  0  0  0  0  0  0  0  0  0  0  0
   77.1083   44.9283   -2.3620 H   0  0  0  0  0  0  0  0  0  0  0  0
   76.6143   45.3552   -4.7703 H   0  0  0  0  0  0  0  0  0  0  0  0
   75.4980   43.7960   -6.8560 H   0  0  0  0  0  0  0  0  0  0  0  0
  1  2  2  0
  2  3  1  0
  3  4  1  0
  3  5  2  0
  5  6  1  0
  6  7  2  0
  7  8  1  0
  8  9  2  0
  9 10  1  0
 10 11  1  0
  9 12  1  0
 12 13  1  0
 13 14  1  0
 13 15  1  0
 13 16  1  0
 12 17  2  0
  5 18  1  0
 18 19  1  0
 19 20  2  0
 20 21  1  0
 21 22  2  0
 22 23  1  0
 23 24  1  0
 23 25  2  0
 25  2  1  0
 17  6  1  0
 25 19  1  0
  4 26  1  0
  7 27  1  0
  8 28  1  0
 10 29  1  0
 10 30  1  0
 17 31  1  0
 20 32  1  0
 21 33  1  0
 22 34  1  0
 24 35  1  0
M  END
>  <meeko>  (6) 
{"is_sidechain": [false], "free_energy": -7.918, "intermolecular_energy": -9.471, "internal_energy": -0.473}

$$$$
cand_010_out
     RDKit          3D

 35 37  0  0  0  0  0  0  0  0999 V2000
   68.6950   40.2980   -1.0290 O   0  0  0  0  0  0  0  0  0  0  0  0
   69.8960   40.0640   -1.1590 C   0  0  0  0  0  0  0  0  0  0  0  0
   70.7470   40.9450   -1.9900 C   0  0  0  0  0  0  0  0  0  0  0  0
   70.1360   42.0320   -2.5890 O   0  0  0  0  0  0  0  0  0  0  0  0
   72.0560   40.6540   -2.1020 C   0  0  0  0  0  0  0  0  0  0  0  0
   73.0010   41.4700   -2.8950 C   0  0  0  0  0  0  0  0  0  0  0  0
   72.8120   41.6920   -4.2630 C   0  0  0  0  0  0  0  0  0  0  0  0
   73.7320   42.4440   -4.9990 C   0  0  0  0  0  0  0  0  0  0  0  0
   74.8730   42.9870   -4.3890 C   0  0  0  0  0  0  0  0  0  0  0  0
   75.8390   43.8000   -5.2190 C   0  0  0  0  0  0  0  0  0  0  0  0
   76.8890   43.0700   -5.6950 F   0  0  0  0  0  0  0  0  0  0  0  0
   75.0810   42.7700   -3.0090 C   0  0  0  0  0  0  0  0  0  0  0  0
   76.2950   43.3290   -2.3010 C   0  0  0  0  0  0  0  0  0  0  0  0
   76.3610   44.6890   -2.3090 F   0  0  0  0  0  0  0  0  0  0  0  0
   76.3420   42.9620   -0.9910 F   0  0  0  0  0  0  0  0  0  0  0  0
   77.4630   42.8970   -2.8510 F   0  0  0  0  0  0  0  0  0  0  0  0
   74.1440   42.0060   -2.2840 C   0  0  0  0  0  0  0  0  0  0  0  0
   72.6690   39.5770   -1.4720 O   0  0  0  0  0  0  0  0  0  0  0  0
   71.9040   38.7380   -0.7020 C   0  0  0  0  0  0  0  0  0  0  0  0
   72.5560   37.6620   -0.1000 C   0  0  0  0  0  0  0  0  0  0  0  0
   71.8370   36.7700    0.6990 C   0  0  0  0  0  0  0  0  0  0  0  0
   70.4660   36.9540    0.8940 C   0  0  0  0  0  0  0  0  0  0  0  0
   69.8180   38.0290    0.2910 C   0  0  0  0  0  0  0  0  0  0  0  0
   68.4750   38.1510    0.5250 O   0  0  0  0  0  0  0  0  0  0  0  0
   70.5380   38.9220   -0.5080 C   0  0  0  0  0  0  0  0  0  0  0  0
   70.5680   42.4870   -3.2850 H   0  0  0  0  0  0  0  0  0  0  0  0
   71.9291   41.2699   -4.7654 H   0  0  0  0  0  0  0  0  0  0  0  0
   73.5590   42.6126   -6.0722 H   0  0  0  0  0  0  0  0  0  0  0  0
   75.2928   44.2246   -6.0742 H   0  0  0  0  0  0  0  0  0  0  0  0
   76.2548   44.5798   -4.5641 H   0  0  0  0  0  0  0  0  0  0  0  0
   74.3136   41.8257   -1.2122 H   0  0  0  0  0  0  0  0  0  0  0  0
   73.6353   37.5160   -0.2543 H   0  0  0  0  0  0  0  0  0  0  0  0
   72.3508   35.9219    1.1751 H   0  0  0  0  0  0  0  0  0  0  0  0
   69.8995   36.2512    1.5226 H   0  0  0  0  0  0  0  0  0  0  0  0
   67.9520   37.3850    0.6580 H   0  0  0  0  0  0  0  0  0  0  0  0
  1  2  2  0
  2  3  1  0
  3  4  1  0
  3  5  2  0
  5  6  1  0
  6  7  2  0
  7  8  1  0
  8  9  2  0
  9 10  1  0
 10 11  1  0
  9 12  1  0
 12 13  1  0
 13 14  1  0
 13 15  1  0
 13 16  1  0
 12 17  2  0
  5 18  1  0
 18 19  1  0
 19 20  2  0
 20 21  1  0
 21 22  2  0
 22 23  1  0
 23 24  1  0
 23 25  2  0
 25  2  1  0
 17  6  1  0
 25 19  1  0
  4 26  1  0
  7 27  1  0
  8 28  1  0
 10 29  1  0
 10 30  1  0
 17 31  1  0
 20 32  1  0
 21 33  1  0
 22 34  1  0
 24 35  1  0
M  END
>  <meeko>  (7) 
{"is_sidechain": [false], "free_energy": -7.915, "intermolecular_energy": -9.567, "internal_energy": -0.374}

$$$$
cand_010_out
     RDKit          3D

 35 37  0  0  0  0  0  0  0  0999 V2000
   67.6780   41.4340   -3.6620 O   0  0  0  0  0  0  0  0  0  0  0  0
   68.6870   41.3770   -2.9620 C   0  0  0  0  0  0  0  0  0  0  0  0
   69.8740   42.2020   -3.2860 C   0  0  0  0  0  0  0  0  0  0  0  0
   69.7830   43.0340   -4.3860 O   0  0  0  0  0  0  0  0  0  0  0  0
   70.9560   42.1100   -2.4910 C   0  0  0  0  0  0  0  0  0  0  0  0
   72.1900   42.8940   -2.7120 C   0  0  0  0  0  0  0  0  0  0  0  0
   72.1580   44.1760   -3.2680 C   0  0  0  0  0  0  0  0  0  0  0  0
   73.3390   44.8890   -3.4930 C   0  0  0  0  0  0  0  0  0  0  0  0
   74.5880   44.3340   -3.1760 C   0  0  0  0  0  0  0  0  0  0  0  0
   75.8410   45.1400   -3.4280 C   0  0  0  0  0  0  0  0  0  0  0  0
   76.3490   45.7140   -2.2990 F   0  0  0  0  0  0  0  0  0  0  0  0
   74.6400   43.0390   -2.6150 C   0  0  0  0  0  0  0  0  0  0  0  0
   75.9580   42.3910   -2.2570 C   0  0  0  0  0  0  0  0  0  0  0  0
   76.9080   42.4980   -3.2270 F   0  0  0  0  0  0  0  0  0  0  0  0
   76.5100   42.9300   -1.1350 F   0  0  0  0  0  0  0  0  0  0  0  0
   75.8310   41.0590   -2.0060 F   0  0  0  0  0  0  0  0  0  0  0  0
   73.4380   42.3340   -2.3990 C   0  0  0  0  0  0  0  0  0  0  0  0
   71.0280   41.2930   -1.3680 O   0  0  0  0  0  0  0  0  0  0  0  0
   69.9480   40.5110   -1.0490 C   0  0  0  0  0  0  0  0  0  0  0  0
   70.0680   39.6960    0.0770 C   0  0  0  0  0  0  0  0  0  0  0  0
   69.0050   38.8750    0.4600 C   0  0  0  0  0  0  0  0  0  0  0  0
   67.8230   38.8700   -0.2830 C   0  0  0  0  0  0  0  0  0  0  0  0
   67.7050   39.6840   -1.4070 C   0  0  0  0  0  0  0  0  0  0  0  0
   66.5190   39.6310   -2.0870 O   0  0  0  0  0  0  0  0  0  0  0  0
   68.7690   40.5050   -1.7890 C   0  0  0  0  0  0  0  0  0  0  0  0
   68.9990   43.5260   -4.5380 H   0  0  0  0  0  0  0  0  0  0  0  0
   71.1912   44.6295   -3.5318 H   0  0  0  0  0  0  0  0  0  0  0  0
   73.2885   45.8995   -3.9247 H   0  0  0  0  0  0  0  0  0  0  0  0
   76.6049   44.4737   -3.8551 H   0  0  0  0  0  0  0  0  0  0  0  0
   75.5715   45.9553   -4.1154 H   0  0  0  0  0  0  0  0  0  0  0  0
   73.4797   41.3200   -1.9747 H   0  0  0  0  0  0  0  0  0  0  0  0
   70.9991   39.7000    0.6627 H   0  0  0  0  0  0  0  0  0  0  0  0
   69.0991   38.2320    1.3475 H   0  0  0  0  0  0  0  0  0  0  0  0
   66.9857   38.2238    0.0190 H   0  0  0  0  0  0  0  0  0  0  0  0
   66.5190   39.5170   -3.0170 H   0  0  0  0  0  0  0  0  0  0  0  0
  1  2  2  0
  2  3  1  0
  3  4  1  0
  3  5  2  0
  5  6  1  0
  6  7  2  0
  7  8  1  0
  8  9  2  0
  9 10  1  0
 10 11  1  0
  9 12  1  0
 12 13  1  0
 13 14  1  0
 13 15  1  0
 13 16  1  0
 12 17  2  0
  5 18  1  0
 18 19  1  0
 19 20  2  0
 20 21  1  0
 21 22  2  0
 22 23  1  0
 23 24  1  0
 23 25  2  0
 25  2  1  0
 17  6  1  0
 25 19  1  0
  4 26  1  0
  7 27  1  0
  8 28  1  0
 10 29  1  0
 10 30  1  0
 17 31  1  0
 20 32  1  0
 21 33  1  0
 22 34  1  0
 24 35  1  0
M  END
>  <meeko>  (8) 
{"is_sidechain": [false], "free_energy": -7.908, "intermolecular_energy": -9.876, "internal_energy": -0.057}

$$$$
cand_010_out
     RDKit          3D

 35 37  0  0  0  0  0  0  0  0999 V2000
   66.9680   42.7110   -4.6420 O   0  0  0  0  0  0  0  0  0  0  0  0
   68.1520   42.7020   -4.3090 C   0  0  0  0  0  0  0  0  0  0  0  0
   68.7130   41.5530   -3.5620 C   0  0  0  0  0  0  0  0  0  0  0  0
   67.8550   40.5060   -3.2770 O   0  0  0  0  0  0  0  0  0  0  0  0
   70.0140   41.5830   -3.2200 C   0  0  0  0  0  0  0  0  0  0  0  0
   70.6820   40.4880   -2.4840 C   0  0  0  0  0  0  0  0  0  0  0  0
   71.8470   39.8820   -2.9640 C   0  0  0  0  0  0  0  0  0  0  0  0
   72.4470   38.8310   -2.2650 C   0  0  0  0  0  0  0  0  0  0  0  0
   71.8920   38.3490   -1.0700 C   0  0  0  0  0  0  0  0  0  0  0  0
   72.5750   37.2160   -0.3410 C   0  0  0  0  0  0  0  0  0  0  0  0
   73.3470   37.6340    0.7040 F   0  0  0  0  0  0  0  0  0  0  0  0
   70.7140   38.9480   -0.5710 C   0  0  0  0  0  0  0  0  0  0  0  0
   70.0710   38.4670    0.7100 C   0  0  0  0  0  0  0  0  0  0  0  0
   70.7670   38.7960    1.8340 F   0  0  0  0  0  0  0  0  0  0  0  0
   68.8210   38.9790    0.8840 F   0  0  0  0  0  0  0  0  0  0  0  0
   69.9260   37.1140    0.7440 F   0  0  0  0  0  0  0  0  0  0  0  0
   70.1210   40.0050   -1.2920 C   0  0  0  0  0  0  0  0  0  0  0  0
   70.8760   42.6260   -3.5360 O   0  0  0  0  0  0  0  0  0  0  0  0
   70.3840   43.7080   -4.2200 C   0  0  0  0  0  0  0  0  0  0  0  0
   71.2800   44.7390   -4.5050 C   0  0  0  0  0  0  0  0  0  0  0  0
   70.8430   45.8690   -5.2000 C   0  0  0  0  0  0  0  0  0  0  0  0
   69.5120   45.9680   -5.6100 C   0  0  0  0  0  0  0  0  0  0  0  0
   68.6200   44.9380   -5.3250 C   0  0  0  0  0  0  0  0  0  0  0  0
   67.3320   45.0990   -5.7560 O   0  0  0  0  0  0  0  0  0  0  0  0
   69.0570   43.8070   -4.6290 C   0  0  0  0  0  0  0  0  0  0  0  0
   66.9300   40.6170   -3.3810 H   0  0  0  0  0  0  0  0  0  0  0  0
   72.2967   40.2367   -3.9031 H   0  0  0  0  0  0  0  0  0  0  0  0
   73.3679   38.3750   -2.6575 H   0  0  0  0  0  0  0  0  0  0  0  0
   71.8033   36.5342    0.0458 H   0  0  0  0  0  0  0  0  0  0  0  0
   73.2425   36.7205   -1.0614 H   0  0  0  0  0  0  0  0  0  0  0  0
   69.1960   40.4620   -0.9106 H   0  0  0  0  0  0  0  0  0  0  0  0
   72.3289   44.6620   -4.1828 H   0  0  0  0  0  0  0  0  0  0  0  0
   71.5487   46.6823   -5.4247 H   0  0  0  0  0  0  0  0  0  0  0  0
   69.1689   46.8584   -6.1573 H   0  0  0  0  0  0  0  0  0  0  0  0
   66.6330   44.6530   -5.3200 H   0  0  0  0  0  0  0  0  0  0  0  0
  1  2  2  0
  2  3  1  0
  3  4  1  0
  3  5  2  0
  5  6  1  0
  6  7  2  0
  7  8  1  0
  8  9  2  0
  9 10  1  0
 10 11  1  0
  9 12  1  0
 12 13  1  0
 13 14  1  0
 13 15  1  0
 13 16  1  0
 12 17  2  0
  5 18  1  0
 18 19  1  0
 19 20  2  0
 20 21  1  0
 21 22  2  0
 22 23  1  0
 23 24  1  0
 23 25  2  0
 25  2  1  0
 17  6  1  0
 25 19  1  0
  4 26  1  0
  7 27  1  0
  8 28  1  0
 10 29  1  0
 10 30  1  0
 17 31  1  0
 20 32  1  0
 21 33  1  0
 22 34  1  0
 24 35  1  0
M  END
>  <meeko>  (9) 
{"is_sidechain": [false], "free_energy": -7.873, "intermolecular_energy": -9.647, "internal_energy": -0.242}

$$$$
