cand_008_out
     RDKit          3D

 35 37  0  0  0  0  0  0  0  0999 V2000
   68.4900   43.1390   -5.2410 O   0  0  0  0  0  0  0  0  0  0  0  0
   68.2430   42.9110   -4.0590 C   0  0  0  0  0  0  0  0  0  0  0  0
   68.9130   41.7940   -3.3530 C   0  0  0  0  0  0  0  0  0  0  0  0
   69.8030   41.0290   -4.0870 O   0  0  0  0  0  0  0  0  0  0  0  0
   68.6130   41.5770   -2.0600 C   0  0  0  0  0  0  0  0  0  0  0  0
   69.2100   40.4860   -1.2610 C   0  0  0  0  0  0  0  0  0  0  0  0
   68.4290   39.4700   -0.7030 C   0  0  0  0  0  0  0  0  0  0  0  0
   69.0160   38.4350    0.0300 C   0  0  0  0  0  0  0  0  0  0  0  0
   70.4060   38.3860    0.2210 C   0  0  0  0  0  0  0  0  0  0  0  0
   71.0130   37.2510    1.0150 C   0  0  0  0  0  0  0  0  0  0  0  0
   70.5130   36.0290    0.6710 F   0  0  0  0  0  0  0  0  0  0  0  0
   70.7760   37.3750    2.3510 F   0  0  0  0  0  0  0  0  0  0  0  0
   71.2130   39.3920   -0.3580 C   0  0  0  0  0  0  0  0  0  0  0  0
   72.7160   39.3860   -0.1880 C   0  0  0  0  0  0  0  0  0  0  0  0
   73.3360   40.1960   -1.0940 F   0  0  0  0  0  0  0  0  0  0  0  0
   73.1190   39.8390    1.0330 F   0  0  0  0  0  0  0  0  0  0  0  0
   70.6010   40.4310   -1.0860 C   0  0  0  0  0  0  0  0  0  0  0  0
   67.6960   42.3340   -1.3400 O   0  0  0  0  0  0  0  0  0  0  0  0
   67.0640   43.3800   -1.9640 C   0  0  0  0  0  0  0  0  0  0  0  0
   66.1610   44.1210   -1.2000 C   0  0  0  0  0  0  0  0  0  0  0  0
   65.4830   45.1970   -1.7740 C   0  0  0  0  0  0  0  0  0  0  0  0
   65.7080   45.5340   -3.1110 C   0  0  0  0  0  0  0  0  0  0  0  0
   66.6100   44.7940   -3.8710 C   0  0  0  0  0  0  0  0  0  0  0  0
   66.7820   45.1760   -5.1720 O   0  0  0  0  0  0  0  0  0  0  0  0
   67.2890   43.7160   -3.2960 C   0  0  0  0  0  0  0  0  0  0  0  0
   70.0730   40.1910   -3.7680 H   0  0  0  0  0  0  0  0  0  0  0  0
   67.3380   39.4853   -0.8426 H   0  0  0  0  0  0  0  0  0  0  0  0
   68.3806   37.6484    0.4630 H   0  0  0  0  0  0  0  0  0  0  0  0
   72.0865   37.3127    0.7831 H   0  0  0  0  0  0  0  0  0  0  0  0
   72.9926   38.3300   -0.3233 H   0  0  0  0  0  0  0  0  0  0  0  0
   71.2290   41.2185   -1.5281 H   0  0  0  0  0  0  0  0  0  0  0  0
   65.9841   43.8571   -0.1469 H   0  0  0  0  0  0  0  0  0  0  0  0
   64.7703   45.7808   -1.1729 H   0  0  0  0  0  0  0  0  0  0  0  0
   65.1734   46.3827   -3.5626 H   0  0  0  0  0  0  0  0  0  0  0  0
   66.4320   45.9930   -5.4700 H   0  0  0  0  0  0  0  0  0  0  0  0
  1  2  2  0
  2  3  1  0
  3  4  1  0
  3  5  2  0
  5  6  1  0
  6  7  2  0
  7  8  1  0
  8  9  2  0
  9 10  1  0
 10 11  1  0
 10 12  1  0
  9 13  1  0
 13 14  1  0
 14 15  1  0
 14 16  1  0
 13 17  2  0
  5 18  1  0
 18 19  1  0
 19 20  2  0
 20 21  1  0
 21 22  2  0
 22 23  1  0
 23 24  1  0
 23 25  2  0
 25  2  1  0
 17  6  1  0
 25 19  1  0
  4 26  1  0
  7 27  1  0
  8 28  1  0
 10 29  1  0
 14 30  1  0
 17 31  1  0
 20 32  1  0
 21 33  1  0
 22 34  1  0
 24 35  1  0
M  END
>  <meeko>  (1) 
{"is_sidechain": [false], "free_energy": -8.1, "intermolecular_energy": -9.994, "internal_energy": -0.503}

$$$$
cand_008_out
     RDKit          3D

 35 37  0  0  0  0  0  0  0  0999 V2000
   66.9420   42.5000   -4.6030 O   0  0  0  0  0  0  0  0  0  0  0  0
   68.0220   42.4180   -4.0220 C   0  0  0  0  0  0  0  0  0  0  0  0
   68.2890   41.2980   -3.0890 C   0  0  0  0  0  0  0  0  0  0  0  0
   67.2720   40.3780   -2.9010 O   0  0  0  0  0  0  0  0  0  0  0  0
   69.4830   41.2460   -2.4710 C   0  0  0  0  0  0  0  0  0  0  0  0
   69.8540   40.1840   -1.5120 C   0  0  0  0  0  0  0  0  0  0  0  0
   68.9310   39.6580   -0.6030 C   0  0  0  0  0  0  0  0  0  0  0  0
   69.2950   38.6380    0.2800 C   0  0  0  0  0  0  0  0  0  0  0  0
   70.5970   38.1110    0.2740 C   0  0  0  0  0  0  0  0  0  0  0  0
   70.9600   37.0040    1.2380 C   0  0  0  0  0  0  0  0  0  0  0  0
   70.2840   35.8440    1.0020 F   0  0  0  0  0  0  0  0  0  0  0  0
   70.6730   37.3330    2.5290 F   0  0  0  0  0  0  0  0  0  0  0  0
   71.5350   38.6140   -0.6560 C   0  0  0  0  0  0  0  0  0  0  0  0
   72.9490   38.0810   -0.7100 C   0  0  0  0  0  0  0  0  0  0  0  0
   73.6690   38.6390   -1.7240 F   0  0  0  0  0  0  0  0  0  0  0  0
   73.6640   38.3410    0.4220 F   0  0  0  0  0  0  0  0  0  0  0  0
   71.1510   39.6480   -1.5310 C   0  0  0  0  0  0  0  0  0  0  0  0
   70.4870   42.1910   -2.6450 O   0  0  0  0  0  0  0  0  0  0  0  0
   70.2720   43.2360   -3.5080 C   0  0  0  0  0  0  0  0  0  0  0  0
   71.3120   44.1540   -3.6610 C   0  0  0  0  0  0  0  0  0  0  0  0
   71.1580   45.2420   -4.5230 C   0  0  0  0  0  0  0  0  0  0  0  0
   69.9660   45.4100   -5.2320 C   0  0  0  0  0  0  0  0  0  0  0  0
   68.9310   44.4930   -5.0770 C   0  0  0  0  0  0  0  0  0  0  0  0
   67.7920   44.7180   -5.7990 O   0  0  0  0  0  0  0  0  0  0  0  0
   69.0850   43.4040   -4.2140 C   0  0  0  0  0  0  0  0  0  0  0  0
   66.7230   40.4360   -2.1450 H   0  0  0  0  0  0  0  0  0  0  0  0
   67.9044   40.0525   -0.5827 H   0  0  0  0  0  0  0  0  0  0  0  0
   68.5525   38.2427    0.9888 H   0  0  0  0  0  0  0  0  0  0  0  0
   72.0399   36.8642    1.0821 H   0  0  0  0  0  0  0  0  0  0  0  0
   72.8156   36.9979   -0.8485 H   0  0  0  0  0  0  0  0  0  0  0  0
   71.8854   40.0455   -2.2470 H   0  0  0  0  0  0  0  0  0  0  0  0
   72.2511   44.0209   -3.1038 H   0  0  0  0  0  0  0  0  0  0  0  0
   71.9761   45.9674   -4.6438 H   0  0  0  0  0  0  0  0  0  0  0  0
   69.8458   46.2662   -5.9120 H   0  0  0  0  0  0  0  0  0  0  0  0
   67.8330   44.7700   -6.7340 H   0  0  0  0  0  0  0  0  0  0  0  0
  1  2  2  0
  2  3  1  0
  3  4  1  0
  3  5  2  0
  5  6  1  0
  6  7  2  0
  7  8  1  0
  8  9  2  0
  9 10  1  0
 10 11  1  0
 10 12  1  0
  9 13  1  0
 13 14  1  0
 14 15  1  0
 14 16  1  0
 13 17  2  0
  5 18  1  0
 18 19  1  0
 19 20  2  0
 20 21  1  0
 21 22  2  0
 22 23  1  0
 23 24  1  0
 23 25  2  0
 25  2  1  0
 17  6  1  0
 25 19  1  0
  4 26  1  0
  7 27  1  0
  8 28  1  0
 10 29  1  0
 14 30  1  0
 17 31  1  0
 20 32  1  0
 21 33  1  0
 22 34  1  0
 24 35  1  0
M  END
>  <meeko>  (2) 
{"is_sidechain": [false], "free_energy": -8.085, "intermolecular_energy": -10.26, "internal_energy": -0.219}

$$$$
cand_008_out
     RDKit          3D

 35 37  0  0  0  0  0  0  0  0999 V2000
   69.7310   43.2080   -5.5100 O   0  0  0  0  0  0  0  0  0  0  0  0
   70.6490   42.9480   -4.7350 C   0  0  0  0  0  0  0  0  0  0  0  0
   70.6050   41.7230   -3.9020 C   0  0  0  0  0  0  0  0  0  0  0  0
   69.4900   40.9140   -4.0310 O   0  0  0  0  0  0  0  0  0  0  0  0
   71.6300   41.4770   -3.0660 C   0  0  0  0  0  0  0  0  0  0  0  0
   71.6870   40.2940   -2.1800 C   0  0  0  0  0  0  0  0  0  0  0  0
   72.6090   39.2640   -2.3860 C   0  0  0  0  0  0  0  0  0  0  0  0
   72.6610   38.1650   -1.5240 C   0  0  0  0  0  0  0  0  0  0  0  0
   71.7910   38.0690   -0.4260 C   0  0  0  0  0  0  0  0  0  0  0  0
   71.8730   36.8700    0.4920 C   0  0  0  0  0  0  0  0  0  0  0  0
   72.9240   36.0490    0.2070 F   0  0  0  0  0  0  0  0  0  0  0  0
   70.7650   36.0820    0.4070 F   0  0  0  0  0  0  0  0  0  0  0  0
   70.8680   39.1140   -0.1900 C   0  0  0  0  0  0  0  0  0  0  0  0
   69.9100   39.0650    0.9790 C   0  0  0  0  0  0  0  0  0  0  0  0
   68.8680   38.2160    0.7520 F   0  0  0  0  0  0  0  0  0  0  0  0
   70.4910   38.6200    2.1300 F   0  0  0  0  0  0  0  0  0  0  0  0
   70.8260   40.2090   -1.0750 C   0  0  0  0  0  0  0  0  0  0  0  0
   72.7330   42.3110   -2.9230 O   0  0  0  0  0  0  0  0  0  0  0  0
   72.8050   43.4490   -3.6870 C   0  0  0  0  0  0  0  0  0  0  0  0
   73.9350   44.2520   -3.5200 C   0  0  0  0  0  0  0  0  0  0  0  0
   74.0710   45.4240   -4.2650 C   0  0  0  0  0  0  0  0  0  0  0  0
   73.0790   45.7950   -5.1760 C   0  0  0  0  0  0  0  0  0  0  0  0
   71.9530   44.9930   -5.3400 C   0  0  0  0  0  0  0  0  0  0  0  0
   71.0210   45.4140   -6.2470 O   0  0  0  0  0  0  0  0  0  0  0  0
   71.8170   43.8180   -4.5940 C   0  0  0  0  0  0  0  0  0  0  0  0
   68.8820   40.8390   -3.3230 H   0  0  0  0  0  0  0  0  0  0  0  0
   73.3029   39.3190   -3.2378 H   0  0  0  0  0  0  0  0  0  0  0  0
   73.3930   37.3648   -1.7081 H   0  0  0  0  0  0  0  0  0  0  0  0
   71.9835   37.3118    1.4933 H   0  0  0  0  0  0  0  0  0  0  0  0
   69.5746   40.1070    1.0878 H   0  0  0  0  0  0  0  0  0  0  0  0
   70.1011   41.0167   -0.8958 H   0  0  0  0  0  0  0  0  0  0  0  0
   74.7165   43.9613   -2.8025 H   0  0  0  0  0  0  0  0  0  0  0  0
   74.9611   46.0570   -4.1347 H   0  0  0  0  0  0  0  0  0  0  0  0
   73.1874   46.7192   -5.7627 H   0  0  0  0  0  0  0  0  0  0  0  0
   70.3360   45.9940   -5.9790 H   0  0  0  0  0  0  0  0  0  0  0  0
  1  2  2  0
  2  3  1  0
  3  4  1  0
  3  5  2  0
  5  6  1  0
  6  7  2  0
  7  8  1  0
  8  9  2  0
  9 10  1  0
 10 11  1  0
 10 12  1  0
  9 13  1  0
 13 14  1  0
 14 15  1  0
 14 16  1  0
 13 17  2  0
  5 18  1  0
 18 19  1  0
 19 20  2  0
 20 21  1  0
 21 22  2  0
 22 23  1  0
 23 24  1  0
 23 25  2  0
 25  2  1  0
 17  6  1  0
 25 19  1  0
  4 26  1  0
  7 27  1  0
  8 28  1  0
 10 29  1  0
 14 30  1  0
 17 31  1  0
 20 32  1  0
 21 33  1  0
 22 34  1  0
 24 35  1  0
M  END
>  <meeko>  (3) 
{"is_sidechain": [false], "free_energy": -8.076, "intermolecular_energy": -10.159, "internal_energy": -0.308}

$$$$
cand_008_out
     RDKit          3D

 35 37  0  0  0  0  0  0  0  0999 V2000
   68.6000   43.1240   -5.3450 O   0  0  0  0  0  0  0  0  0  0  0  0
   69.4660   42.8870   -4.5050 C   0  0  0  0  0  0  0  0  0  0  0  0
   69.3050   41.7610   -3.5560 C   0  0  0  0  0  0  0  0  0  0  0  0
   68.1430   41.0160   -3.6550 O   0  0  0  0  0  0  0  0  0  0  0  0
   70.2760   41.5370   -2.6520 C   0  0  0  0  0  0  0  0  0  0  0  0
   70.2160   40.4520   -1.6500 C   0  0  0  0  0  0  0  0  0  0  0  0
   69.0150   40.0830   -1.0360 C   0  0  0  0  0  0  0  0  0  0  0  0
   68.9760   39.0390   -0.1080 C   0  0  0  0  0  0  0  0  0  0  0  0
   70.1400   38.3300    0.2280 C   0  0  0  0  0  0  0  0  0  0  0  0
   70.0650   37.2020    1.2330 C   0  0  0  0  0  0  0  0  0  0  0  0
   70.8810   37.3890    2.3110 F   0  0  0  0  0  0  0  0  0  0  0  0
   70.4450   36.0090    0.6950 F   0  0  0  0  0  0  0  0  0  0  0  0
   71.3570   38.6740   -0.4010 C   0  0  0  0  0  0  0  0  0  0  0  0
   72.6410   37.9420   -0.0800 C   0  0  0  0  0  0  0  0  0  0  0  0
   72.7050   36.7270   -0.6940 F   0  0  0  0  0  0  0  0  0  0  0  0
   73.7570   38.6110   -0.4910 F   0  0  0  0  0  0  0  0  0  0  0  0
   71.3780   39.7350   -1.3270 C   0  0  0  0  0  0  0  0  0  0  0  0
   71.4270   42.3100   -2.5430 O   0  0  0  0  0  0  0  0  0  0  0  0
   71.6080   43.3560   -3.4120 C   0  0  0  0  0  0  0  0  0  0  0  0
   72.7820   44.0970   -3.2740 C   0  0  0  0  0  0  0  0  0  0  0  0
   73.0280   45.1750   -4.1270 C   0  0  0  0  0  0  0  0  0  0  0  0
   72.1010   45.5120   -5.1160 C   0  0  0  0  0  0  0  0  0  0  0  0
   70.9310   44.7710   -5.2510 C   0  0  0  0  0  0  0  0  0  0  0  0
   70.0670   45.1550   -6.2390 O   0  0  0  0  0  0  0  0  0  0  0  0
   70.6840   43.6910   -4.3980 C   0  0  0  0  0  0  0  0  0  0  0  0
   67.7750   40.8330   -4.4960 H   0  0  0  0  0  0  0  0  0  0  0  0
   68.0892   40.6215   -1.2867 H   0  0  0  0  0  0  0  0  0  0  0  0
   68.0205   38.7692    0.3655 H   0  0  0  0  0  0  0  0  0  0  0  0
   69.0088   37.1937    1.5402 H   0  0  0  0  0  0  0  0  0  0  0  0
   72.6229   37.8480    1.0158 H   0  0  0  0  0  0  0  0  0  0  0  0
   72.3284   40.0082   -1.8087 H   0  0  0  0  0  0  0  0  0  0  0  0
   73.5123   43.8327   -2.4950 H   0  0  0  0  0  0  0  0  0  0  0  0
   73.9535   45.7598   -4.0198 H   0  0  0  0  0  0  0  0  0  0  0  0
   72.2955   46.3617   -5.7870 H   0  0  0  0  0  0  0  0  0  0  0  0
   69.7850   44.5340   -6.8810 H   0  0  0  0  0  0  0  0  0  0  0  0
  1  2  2  0
  2  3  1  0
  3  4  1  0
  3  5  2  0
  5  6  1  0
  6  7  2  0
  7  8  1  0
  8  9  2  0
  9 10  1  0
 10 11  1  0
 10 12  1  0
  9 13  1  0
 13 14  1  0
 14 15  1  0
 14 16  1  0
 13 17  2  0
  5 18  1  0
 18 19  1  0
 19 20  2  0
 20 21  1  0
 21 22  2  0
 22 23  1  0
 23 24  1  0
 23 25  2  0
 25  2  1  0
 17  6  1  0
 25 19  1  0
  4 26  1  0
  7 27  1  0
  8 28  1  0
 10 29  1  0
 14 30  1  0
 17 31  1  0
 20 32  1  0
 21 33  1  0
 22 34  1  0
 24 35  1  0
M  END
>  <meeko>  (4) 
{"is_sidechain": [false], "free_energy": -8.051, "intermolecular_energy": -10.366, "internal_energy": -0.07}

$$$$
cand_008_out
     RDKit          3D

 35 37  0  0  0  0  0  0  0  0999 V2000
   72.5940   42.3150   -5.7970 O   0  0  0  0  0  0  0  0  0  0  0  0
   73.0480   42.0820   -4.6780 C   0  0  0  0  0  0  0  0  0  0  0  0
   72.4590   41.0150   -3.8360 C   0  0  0  0  0  0  0  0  0  0  0  0
   71.3830   40.3210   -4.3590 O   0  0  0  0  0  0  0  0  0  0  0  0
   72.9850   40.7940   -2.6170 C   0  0  0  0  0  0  0  0  0  0  0  0
   72.4710   39.7660   -1.6870 C   0  0  0  0  0  0  0  0  0  0  0  0
   73.3090   38.8020   -1.1190 C   0  0  0  0  0  0  0  0  0  0  0  0
   72.8060   37.8520   -0.2250 C   0  0  0  0  0  0  0  0  0  0  0  0
   71.4480   37.8450    0.1290 C   0  0  0  0  0  0  0  0  0  0  0  0
   70.9340   36.8080    1.1030 C   0  0  0  0  0  0  0  0  0  0  0  0
   71.9090   36.3060    1.9160 F   0  0  0  0  0  0  0  0  0  0  0  0
   70.4020   35.7260    0.4680 F   0  0  0  0  0  0  0  0  0  0  0  0
   70.5920   38.8280   -0.4170 C   0  0  0  0  0  0  0  0  0  0  0  0
   69.1210   38.8700   -0.0670 C   0  0  0  0  0  0  0  0  0  0  0  0
   68.9100   39.3160    1.2040 F   0  0  0  0  0  0  0  0  0  0  0  0
   68.4040   39.7110   -0.8660 F   0  0  0  0  0  0  0  0  0  0  0  0
   71.1160   39.7710   -1.3230 C   0  0  0  0  0  0  0  0  0  0  0  0
   74.0480   41.5170   -2.0890 O   0  0  0  0  0  0  0  0  0  0  0  0
   74.6200   42.5060   -2.8480 C   0  0  0  0  0  0  0  0  0  0  0  0
   75.6920   43.1980   -2.2830 C   0  0  0  0  0  0  0  0  0  0  0  0
   76.3190   44.2170   -3.0020 C   0  0  0  0  0  0  0  0  0  0  0  0
   75.8740   44.5450   -4.2860 C   0  0  0  0  0  0  0  0  0  0  0  0
   74.8040   43.8530   -4.8460 C   0  0  0  0  0  0  0  0  0  0  0  0
   74.4190   44.2250   -6.1040 O   0  0  0  0  0  0  0  0  0  0  0  0
   74.1770   42.8320   -4.1260 C   0  0  0  0  0  0  0  0  0  0  0  0
   70.5120   40.5340   -4.0890 H   0  0  0  0  0  0  0  0  0  0  0  0
   74.3778   38.7907   -1.3787 H   0  0  0  0  0  0  0  0  0  0  0  0
   73.4834   37.1004    0.2065 H   0  0  0  0  0  0  0  0  0  0  0  0
   70.1777   37.3507    1.6891 H   0  0  0  0  0  0  0  0  0  0  0  0
   68.7893   37.8293   -0.1976 H   0  0  0  0  0  0  0  0  0  0  0  0
   70.4468   40.5294   -1.7554 H   0  0  0  0  0  0  0  0  0  0  0  0
   76.0424   42.9409   -1.2725 H   0  0  0  0  0  0  0  0  0  0  0  0
   77.1644   44.7627   -2.5576 H   0  0  0  0  0  0  0  0  0  0  0  0
   76.3683   45.3480   -4.8524 H   0  0  0  0  0  0  0  0  0  0  0  0
   73.5080   44.3130   -6.3080 H   0  0  0  0  0  0  0  0  0  0  0  0
  1  2  2  0
  2  3  1  0
  3  4  1  0
  3  5  2  0
  5  6  1  0
  6  7  2  0
  7  8  1  0
  8  9  2  0
  9 10  1  0
 10 11  1  0
 10 12  1  0
  9 13  1  0
 13 14  1  0
 14 15  1  0
 14 16  1  0
 13 17  2  0
  5 18  1  0
 18 19  1  0
 19 20  2  0
 20 21  1  0
 21 22  2  0
 22 23  1  0
 23 24  1  0
 23 25  2  0
 25  2  1  0
 17  6  1  0
 25 19  1  0
  4 26  1  0
  7 27  1  0
  8 28  1  0
 10 29  1  0
 14 30  1  0
 17 31  1  0
 20 32  1  0
 21 33  1  0
 22 34  1  0
 24 35  1  0
M  END
>  <meeko>  (5) 
{"is_sidechain": [false], "free_energy": -7.915, "intermolecular_energy": -9.844, "internal_energy": -0.425}

$$$$
cand_008_out
     RDKit          3D

 35 37  0  0  0  0  0  0  0  0999 V2000
   67.6920   41.3990   -3.6870 O   0  0  0  0  0  0  0  0  0  0  0  0
   68.7040   41.3710   -2.9900 C   0  0  0  0  0  0  0  0  0  0  0  0
   69.8810   42.2000   -3.3420 C   0  0  0  0  0  0  0  0  0  0  0  0
   69.7850   42.9780   -4.4820 O   0  0  0  0  0  0  0  0  0  0  0  0
   70.9690   42.1390   -2.5530 C   0  0  0  0  0  0  0  0  0  0  0  0
   72.2030   42.9110   -2.8140 C   0  0  0  0  0  0  0  0  0  0  0  0
   72.1660   44.1810   -3.3980 C   0  0  0  0  0  0  0  0  0  0  0  0
   73.3420   44.9040   -3.6160 C   0  0  0  0  0  0  0  0  0  0  0  0
   74.5910   44.3750   -3.2490 C   0  0  0  0  0  0  0  0  0  0  0  0
   75.8460   45.1830   -3.4940 C   0  0  0  0  0  0  0  0  0  0  0  0
   76.1710   45.9970   -2.4480 F   0  0  0  0  0  0  0  0  0  0  0  0
   75.7230   46.0100   -4.5700 F   0  0  0  0  0  0  0  0  0  0  0  0
   74.6430   43.1030   -2.6360 C   0  0  0  0  0  0  0  0  0  0  0  0
   75.9590   42.4880   -2.2170 C   0  0  0  0  0  0  0  0  0  0  0  0
   76.2940   42.8140   -0.9360 F   0  0  0  0  0  0  0  0  0  0  0  0
   75.9470   41.1240   -2.2480 F   0  0  0  0  0  0  0  0  0  0  0  0
   73.4470   42.3870   -2.4330 C   0  0  0  0  0  0  0  0  0  0  0  0
   71.0650   41.3320   -1.4260 O   0  0  0  0  0  0  0  0  0  0  0  0
   69.9890   40.5580   -1.0710 C   0  0  0  0  0  0  0  0  0  0  0  0
   70.1250   39.7730    0.0750 C   0  0  0  0  0  0  0  0  0  0  0  0
   69.0680   38.9610    0.4920 C   0  0  0  0  0  0  0  0  0  0  0  0
   67.8760   38.9350   -0.2360 C   0  0  0  0  0  0  0  0  0  0  0  0
   67.7430   39.7200   -1.3780 C   0  0  0  0  0  0  0  0  0  0  0  0
   66.5510   39.6460   -2.0440 O   0  0  0  0  0  0  0  0  0  0  0  0
   68.8020   40.5330   -1.7950 C   0  0  0  0  0  0  0  0  0  0  0  0
   70.5610   43.2460   -4.9320 H   0  0  0  0  0  0  0  0  0  0  0  0
   71.1989   44.6166   -3.6896 H   0  0  0  0  0  0  0  0  0  0  0  0
   73.2892   45.8996   -4.0807 H   0  0  0  0  0  0  0  0  0  0  0  0
   76.6229   44.4205   -3.6522 H   0  0  0  0  0  0  0  0  0  0  0  0
   76.6795   42.8904   -2.9443 H   0  0  0  0  0  0  0  0  0  0  0  0
   73.4897   41.3928   -1.9643 H   0  0  0  0  0  0  0  0  0  0  0  0
   71.0632   39.7938    0.6488 H   0  0  0  0  0  0  0  0  0  0  0  0
   69.1742   38.3413    1.3946 H   0  0  0  0  0  0  0  0  0  0  0  0
   67.0437   38.2952    0.0926 H   0  0  0  0  0  0  0  0  0  0  0  0
   66.4050   40.1770   -2.8020 H   0  0  0  0  0  0  0  0  0  0  0  0
  1  2  2  0
  2  3  1  0
  3  4  1  0
  3  5  2  0
  5  6  1  0
  6  7  2  0
  7  8  1  0
  8  9  2  0
  9 10  1  0
 10 11  1  0
 10 12  1  0
  9 13  1  0
 13 14  1  0
 14 15  1  0
 14 16  1  0
 13 17  2  0
  5 18  1  0
 18 19  1  0
 19 20  2  0
 20 21  1  0
 21 22  2  0
 22 23  1  0
 23 24  1  0
 23 25  2  0
 25  2  1  0
 17  6  1  0
 25 19  1  0
  4 26  1  0
  7 27  1  0
  8 28  1  0
 10 29  1  0
 14 30  1  0
 17 31  1  0
 20 32  1  0
 21 33  1  0
 22 34  1  0
 24 35  1  0
M  END
>  <meeko>  (6) 
{"is_sidechain": [false], "free_energy": -7.821, "intermolecular_energy": -9.879, "internal_energy": -0.274}

$$$$
cand_008_out
     RDKit          3D

 35 37  0  0  0  0  0  0  0  0999 V2000
   72.1380   37.5290    0.1830 O   0  0  0  0  0  0  0  0  0  0  0  0
   71.7610   38.4860   -0.4890 C   0  0  0  0  0  0  0  0  0  0  0  0
   72.7290   39.2670   -1.2950 C   0  0  0  0  0  0  0  0  0  0  0  0
   74.0550   38.8770   -1.2370 O   0  0  0  0  0  0  0  0  0  0  0  0
   72.2740   40.3090   -2.0150 C   0  0  0  0  0  0  0  0  0  0  0  0
   73.1500   41.1640   -2.8440 C   0  0  0  0  0  0  0  0  0  0  0  0
   72.7770   41.5740   -4.1280 C   0  0  0  0  0  0  0  0  0  0  0  0
   73.6100   42.4010   -4.8860 C   0  0  0  0  0  0  0  0  0  0  0  0
   74.8410   42.8450   -4.3770 C   0  0  0  0  0  0  0  0  0  0  0  0
   75.7190   43.7440   -5.2200 C   0  0  0  0  0  0  0  0  0  0  0  0
   75.5840   45.0660   -4.9130 F   0  0  0  0  0  0  0  0  0  0  0  0
   75.4250   43.6490   -6.5470 F   0  0  0  0  0  0  0  0  0  0  0  0
   75.2220   42.4600   -3.0720 C   0  0  0  0  0  0  0  0  0  0  0  0
   76.5340   42.9130   -2.4710 C   0  0  0  0  0  0  0  0  0  0  0  0
   76.4850   44.2090   -2.0510 F   0  0  0  0  0  0  0  0  0  0  0  0
   76.8970   42.1930   -1.3710 F   0  0  0  0  0  0  0  0  0  0  0  0
   74.3720   41.6200   -2.3260 C   0  0  0  0  0  0  0  0  0  0  0  0
   70.9440   40.7100   -2.0430 O   0  0  0  0  0  0  0  0  0  0  0  0
   70.0230   40.0020   -1.3130 C   0  0  0  0  0  0  0  0  0  0  0  0
   68.6960   40.4330   -1.3800 C   0  0  0  0  0  0  0  0  0  0  0  0
   67.7090   39.7570   -0.6610 C   0  0  0  0  0  0  0  0  0  0  0  0
   68.0460   38.6520    0.1250 C   0  0  0  0  0  0  0  0  0  0  0  0
   69.3700   38.2250    0.1890 C   0  0  0  0  0  0  0  0  0  0  0  0
   69.6300   37.1390    0.9770 O   0  0  0  0  0  0  0  0  0  0  0  0
   70.3590   38.9010   -0.5310 C   0  0  0  0  0  0  0  0  0  0  0  0
   74.7060   39.3620   -1.7040 H   0  0  0  0  0  0  0  0  0  0  0  0
   71.8157   41.2412   -4.5465 H   0  0  0  0  0  0  0  0  0  0  0  0
   73.2973   42.7083   -5.8948 H   0  0  0  0  0  0  0  0  0  0  0  0
   76.7393   43.3958   -5.0014 H   0  0  0  0  0  0  0  0  0  0  0  0
   77.2586   42.7728   -3.2867 H   0  0  0  0  0  0  0  0  0  0  0  0
   74.6733   41.3142   -1.3132 H   0  0  0  0  0  0  0  0  0  0  0  0
   68.4295   41.3031   -1.9980 H   0  0  0  0  0  0  0  0  0  0  0  0
   66.6635   40.0949   -0.7132 H   0  0  0  0  0  0  0  0  0  0  0  0
   67.2673   38.1206    0.6919 H   0  0  0  0  0  0  0  0  0  0  0  0
   69.3870   36.2810    0.6880 H   0  0  0  0  0  0  0  0  0  0  0  0
  1  2  2  0
  2  3  1  0
  3  4  1  0
  3  5  2  0
  5  6  1  0
  6  7  2  0
  7  8  1  0
  8  9  2  0
  9 10  1  0
 10 11  1  0
 10 12  1  0
  9 13  1  0
 13 14  1  0
 14 15  1  0
 14 16  1  0
 13 17  2  0
  5 18  1  0
 18 19  1  0
 19 20  2  0
 20 21  1  0
 21 22  2  0
 22 23  1  0
 23 24  1  0
 23 25  2  0
 25  2  1  0
 17  6  1  0
 25 19  1  0
  4 26  1  0
  7 27  1  0
  8 28  1  0
 10 29  1  0
 14 30  1  0
 17 31  1  0
 20 32  1  0
 21 33  1  0
 22 34  1  0
 24 35  1  0
M  END
>  <meeko>  (7) 
{"is_sidechain": [false], "free_energy": -7.807, "intermolecular_energy": -9.778, "internal_energy": -0.358}

$$$$
cand_008_out
     RDKit          3D

 35 37  0  0  0  0  0  0  0  0999 V2000
   77.3510   42.4340   -3.9570 O   0  0  0  0  0  0  0  0  0  0  0  0
   76.1720   42.2380   -4.2460 C   0  0  0  0  0  0  0  0  0  0  0  0
   75.2610   41.5810   -3.2810 C   0  0  0  0  0  0  0  0  0  0  0  0
   75.8020   41.1950   -2.0670 O   0  0  0  0  0  0  0  0  0  0  0  0
   73.9790   41.3840   -3.6370 C   0  0  0  0  0  0  0  0  0  0  0  0
   72.9860   40.7280   -2.7600 C   0  0  0  0  0  0  0  0  0  0  0  0
   73.0240   39.3540   -2.5030 C   0  0  0  0  0  0  0  0  0  0  0  0
   72.0890   38.7580   -1.6530 C   0  0  0  0  0  0  0  0  0  0  0  0
   71.0890   39.5230   -1.0310 C   0  0  0  0  0  0  0  0  0  0  0  0
   70.0940   38.8500   -0.1130 C   0  0  0  0  0  0  0  0  0  0  0  0
   70.3860   37.5400    0.1260 F   0  0  0  0  0  0  0  0  0  0  0  0
   68.8340   38.8500   -0.6320 F   0  0  0  0  0  0  0  0  0  0  0  0
   71.0520   40.9170   -1.2610 C   0  0  0  0  0  0  0  0  0  0  0  0
   70.0000   41.7910   -0.6150 C   0  0  0  0  0  0  0  0  0  0  0  0
   70.3640   43.1050   -0.6000 F   0  0  0  0  0  0  0  0  0  0  0  0
   68.8020   41.7580   -1.2640 F   0  0  0  0  0  0  0  0  0  0  0  0
   71.9980   41.4980   -2.1280 C   0  0  0  0  0  0  0  0  0  0  0  0
   73.4520   41.7500   -4.8700 O   0  0  0  0  0  0  0  0  0  0  0  0
   74.2700   42.3670   -5.7830 C   0  0  0  0  0  0  0  0  0  0  0  0
   73.6960   42.7280   -7.0040 C   0  0  0  0  0  0  0  0  0  0  0  0
   74.4730   43.3590   -7.9780 C   0  0  0  0  0  0  0  0  0  0  0  0
   75.8220   43.6280   -7.7320 C   0  0  0  0  0  0  0  0  0  0  0  0
   76.3910   43.2670   -6.5140 C   0  0  0  0  0  0  0  0  0  0  0  0
   77.7150   43.5580   -6.3400 O   0  0  0  0  0  0  0  0  0  0  0  0
   75.6130   42.6360   -5.5380 C   0  0  0  0  0  0  0  0  0  0  0  0
   75.2550   41.1330   -1.3090 H   0  0  0  0  0  0  0  0  0  0  0  0
   73.8000   38.7344   -2.9762 H   0  0  0  0  0  0  0  0  0  0  0  0
   72.1368   37.6746   -1.4684 H   0  0  0  0  0  0  0  0  0  0  0  0
   70.1537   39.4385    0.8144 H   0  0  0  0  0  0  0  0  0  0  0  0
   69.9050   41.3794    0.4007 H   0  0  0  0  0  0  0  0  0  0  0  0
   71.9612   42.5815   -2.3140 H   0  0  0  0  0  0  0  0  0  0  0  0
   72.6343   42.5158   -7.1981 H   0  0  0  0  0  0  0  0  0  0  0  0
   74.0225   43.6446   -8.9400 H   0  0  0  0  0  0  0  0  0  0  0  0
   76.4335   44.1244   -8.4999 H   0  0  0  0  0  0  0  0  0  0  0  0
   78.3390   42.8650   -6.2480 H   0  0  0  0  0  0  0  0  0  0  0  0
  1  2  2  0
  2  3  1  0
  3  4  1  0
  3  5  2  0
  5  6  1  0
  6  7  2  0
  7  8  1  0
  8  9  2  0
  9 10  1  0
 10 11  1  0
 10 12  1  0
  9 13  1  0
 13 14  1  0
 14 15  1  0
 14 16  1  0
 13 17  2  0
  5 18  1  0
 18 19  1  0
 19 20  2  0
 20 21  1  0
 21 22  2  0
 22 23  1  0
 23 24  1  0
 23 25  2  0
 25  2  1  0
 17  6  1  0
 25 19  1  0
  4 26  1  0
  7 27  1  0
  8 28  1  0
 10 29  1  0
 14 30  1  0
 17 31  1  0
 20 32  1  0
 21 33  1  0
 22 34  1  0
 24 35  1  0
M  END
>  <meeko>  (8) 
{"is_sidechain": [false], "free_energy": -7.759, "intermolecular_energy": -9.447, "internal_energy": -0.629}

$$$$
cand_008_out
     RDKit          3D

 35 37  0  0  0  0  0  0  0  0999 V2000
   68.7300   40.3070   -1.1140 O   0  0  0  0  0  0  0  0  0  0  0  0
   69.9220   40.0260   -1.2230 C   0  0  0  0  0  0  0  0  0  0  0  0
   70.8180   40.8590   -2.0580 C   0  0  0  0  0  0  0  0  0  0  0  0
   70.2480   41.9400   -2.7070 O   0  0  0  0  0  0  0  0  0  0  0  0
   72.1150   40.5150   -2.1510 C   0  0  0  0  0  0  0  0  0  0  0  0
   73.0960   41.2650   -2.9650 C   0  0  0  0  0  0  0  0  0  0  0  0
   72.8480   41.5900   -4.3020 C   0  0  0  0  0  0  0  0  0  0  0  0
   73.7790   42.3190   -5.0470 C   0  0  0  0  0  0  0  0  0  0  0  0
   74.9850   42.7490   -4.4700 C   0  0  0  0  0  0  0  0  0  0  0  0
   75.9700   43.5400   -5.3000 C   0  0  0  0  0  0  0  0  0  0  0  0
   75.8430   44.8890   -5.1420 F   0  0  0  0  0  0  0  0  0  0  0  0
   75.8140   43.3170   -6.6350 F   0  0  0  0  0  0  0  0  0  0  0  0
   75.2400   42.4500   -3.1130 C   0  0  0  0  0  0  0  0  0  0  0  0
   76.5200   42.8910   -2.4400 C   0  0  0  0  0  0  0  0  0  0  0  0
   76.4880   44.2080   -2.0880 F   0  0  0  0  0  0  0  0  0  0  0  0
   76.7770   42.2170   -1.2820 F   0  0  0  0  0  0  0  0  0  0  0  0
   74.2930   41.7060   -2.3820 C   0  0  0  0  0  0  0  0  0  0  0  0
   72.6710   39.4100   -1.5180 O   0  0  0  0  0  0  0  0  0  0  0  0
   71.8680   38.6230   -0.7320 C   0  0  0  0  0  0  0  0  0  0  0  0
   72.4710   37.5310   -0.1050 C   0  0  0  0  0  0  0  0  0  0  0  0
   71.7110   36.6890    0.7080 C   0  0  0  0  0  0  0  0  0  0  0  0
   70.3490   36.9380    0.8950 C   0  0  0  0  0  0  0  0  0  0  0  0
   69.7500   38.0270    0.2690 C   0  0  0  0  0  0  0  0  0  0  0  0
   68.4140   38.2120    0.4940 O   0  0  0  0  0  0  0  0  0  0  0  0
   70.5120   38.8710   -0.5450 C   0  0  0  0  0  0  0  0  0  0  0  0
   69.3180   41.9940   -2.7990 H   0  0  0  0  0  0  0  0  0  0  0  0
   71.9079   41.2678   -4.7737 H   0  0  0  0  0  0  0  0  0  0  0  0
   73.5644   42.5591   -6.0988 H   0  0  0  0  0  0  0  0  0  0  0  0
   76.9508   43.1954   -4.9405 H   0  0  0  0  0  0  0  0  0  0  0  0
   77.2954   42.6861   -3.1928 H   0  0  0  0  0  0  0  0  0  0  0  0
   74.4973   41.4651   -1.3283 H   0  0  0  0  0  0  0  0  0  0  0  0
   73.5434   37.3346   -0.2516 H   0  0  0  0  0  0  0  0  0  0  0  0
   72.1849   35.8281    1.2023 H   0  0  0  0  0  0  0  0  0  0  0  0
   69.7508   36.2740    1.5363 H   0  0  0  0  0  0  0  0  0  0  0  0
   67.9510   37.6300    1.0630 H   0  0  0  0  0  0  0  0  0  0  0  0
  1  2  2  0
  2  3  1  0
  3  4  1  0
  3  5  2  0
  5  6  1  0
  6  7  2  0
  7  8  1  0
  8  9  2  0
  9 10  1  0
 10 11  1  0
 10 12  1  0
  9 13  1  0
 13 14  1  0
 14 15  1  0
 14 16  1  0
 13 17  2  0
  5 18  1  0
 18 19  1  0
 19 20  2  0
 20 21  1  0
 21 22  2  0
 22 23  1  0
 23 24  1  0
 23 25  2  0
 25  2  1  0
 17  6  1  0
 25 19  1  0
  4 26  1  0
  7 27  1  0
  8 28  1  0
 10 29  1  0
 14 30  1  0
 17 31  1  0
 20 32  1  0
 21 33  1  0
 22 34  1  0
 24 35  1  0
M  END
>  <meeko>  (9) 
{"is_sidechain": [false], "free_energy": -7.712, "intermolecular_energy": -9.544, "internal_energy": -0.474}

$$$$
