cand_044_out
     RDKit          3D

 41 43  0  0  0  0  0  0  0  0999 V2000
   77.2370   41.9110   -6.1630 C   0  0  0  0  0  0  0  0  0  0  0  0
   76.2000   42.9560   -6.5440 C   0  0  0  0  0  0  0  0  0  0  0  0
   75.7040   43.7240   -5.3160 C   0  0  0  0  0  0  0  0  0  0  0  0
   74.8350   42.8620   -4.4250 C   0  0  0  0  0  0  0  0  0  0  0  0
   73.6120   42.3990   -4.9370 C   0  0  0  0  0  0  0  0  0  0  0  0
   72.7560   41.6150   -4.1610 C   0  0  0  0  0  0  0  0  0  0  0  0
   73.0910   41.2800   -2.8470 C   0  0  0  0  0  0  0  0  0  0  0  0
   72.2140   40.4300   -2.0110 C   0  0  0  0  0  0  0  0  0  0  0  0
   70.8750   40.7990   -2.0850 O   0  0  0  0  0  0  0  0  0  0  0  0
   69.9510   40.0900   -1.3620 C   0  0  0  0  0  0  0  0  0  0  0  0
   68.6210   40.5010   -1.4580 C   0  0  0  0  0  0  0  0  0  0  0  0
   67.6290   39.8210   -0.7480 C   0  0  0  0  0  0  0  0  0  0  0  0
   67.9660   38.7320    0.0570 C   0  0  0  0  0  0  0  0  0  0  0  0
   69.2950   38.3240    0.1510 C   0  0  0  0  0  0  0  0  0  0  0  0
   69.5550   37.2490    0.9570 O   0  0  0  0  0  0  0  0  0  0  0  0
   70.2860   39.0040   -0.5590 C   0  0  0  0  0  0  0  0  0  0  0  0
   71.6930   38.6080   -0.4900 C   0  0  0  0  0  0  0  0  0  0  0  0
   72.0690   37.6560    0.1920 O   0  0  0  0  0  0  0  0  0  0  0  0
   72.6680   39.3980   -1.2780 C   0  0  0  0  0  0  0  0  0  0  0  0
   73.9920   39.0040   -1.2160 O   0  0  0  0  0  0  0  0  0  0  0  0
   74.3150   41.7370   -2.3350 C   0  0  0  0  0  0  0  0  0  0  0  0
   75.1920   42.5310   -3.1020 C   0  0  0  0  0  0  0  0  0  0  0  0
   76.5000   42.9730   -2.4850 C   0  0  0  0  0  0  0  0  0  0  0  0
   76.5060   44.2860   -2.1210 F   0  0  0  0  0  0  0  0  0  0  0  0
   76.8300   42.2840   -1.3540 F   0  0  0  0  0  0  0  0  0  0  0  0
   77.3040   41.8435   -5.0671 H   0  0  0  0  0  0  0  0  0  0  0  0
   76.9410   40.9342   -6.5731 H   0  0  0  0  0  0  0  0  0  0  0  0
   78.2161   42.1995   -6.5731 H   0  0  0  0  0  0  0  0  0  0  0  0
   76.6512   43.6664   -7.2523 H   0  0  0  0  0  0  0  0  0  0  0  0
   75.3416   42.4416   -7.0008 H   0  0  0  0  0  0  0  0  0  0  0  0
   76.5734   44.0701   -4.7378 H   0  0  0  0  0  0  0  0  0  0  0  0
   75.0978   44.5725   -5.6661 H   0  0  0  0  0  0  0  0  0  0  0  0
   73.3237   42.6583   -5.9664 H   0  0  0  0  0  0  0  0  0  0  0  0
   71.8078   41.2574   -4.5889 H   0  0  0  0  0  0  0  0  0  0  0  0
   68.3542   41.3594   -2.0920 H   0  0  0  0  0  0  0  0  0  0  0  0
   66.5803   40.1443   -0.8234 H   0  0  0  0  0  0  0  0  0  0  0  0
   67.1842   38.1969    0.6161 H   0  0  0  0  0  0  0  0  0  0  0  0
   70.0400   36.5200    0.6230 H   0  0  0  0  0  0  0  0  0  0  0  0
   74.4070   38.8830   -0.3860 H   0  0  0  0  0  0  0  0  0  0  0  0
   74.5981   41.4683   -1.3066 H   0  0  0  0  0  0  0  0  0  0  0  0
   77.2240   42.7781   -3.2899 H   0  0  0  0  0  0  0  0  0  0  0  0
  1  2  1  0
  2  3  1  0
  3  4  1  0
  4  5  2  0
  5  6  1  0
  6  7  2  0
  7  8  1  0
  8  9  1  0
  9 10  1  0
 10 11  2  0
 11 12  1  0
 12 13  2  0
 13 14  1  0
 14 15  1  0
 14 16  2  0
 16 17  1  0
 17 18  2  0
 17 19  1  0
 19 20  1  0
  7 21  1  0
 21 22  2  0
 22 23  1  0
 23 24  1  0
 23 25  1  0
 22  4  1  0
 19  8  2  0
 16 10  1  0
  1 26  1  0
  1 27  1  0
  1 28  1  0
  2 29  1  0
  2 30  1  0
  3 31  1  0
  3 32  1  0
  5 33  1  0
  6 34  1  0
 11 35  1  0
 12 36  1  0
 13 37  1  0
 15 38  1  0
 20 39  1  0
 21 40  1  0
 23 41  1  0
M  END
>  <meeko>  (1) 
{"is_sidechain": [false], "free_energy": -7.807, "intermolecular_energy": -10.089, "internal_energy": -0.57}

$$$$
cand_044_out
     RDKit          3D

 41 43  0  0  0  0  0  0  0  0999 V2000
   70.7200   36.8470    1.2270 C   0  0  0  0  0  0  0  0  0  0  0  0
   70.6480   38.3600    1.1010 C   0  0  0  0  0  0  0  0  0  0  0  0
   70.0350   38.7810   -0.2370 C   0  0  0  0  0  0  0  0  0  0  0  0
   71.0400   39.4920   -1.1190 C   0  0  0  0  0  0  0  0  0  0  0  0
   72.0210   38.7200   -1.7630 C   0  0  0  0  0  0  0  0  0  0  0  0
   72.9870   39.3160   -2.5760 C   0  0  0  0  0  0  0  0  0  0  0  0
   73.0090   40.7010   -2.7610 C   0  0  0  0  0  0  0  0  0  0  0  0
   74.0060   41.3560   -3.6360 C   0  0  0  0  0  0  0  0  0  0  0  0
   73.4730   41.7520   -4.8580 O   0  0  0  0  0  0  0  0  0  0  0  0
   74.2890   42.3780   -5.7660 C   0  0  0  0  0  0  0  0  0  0  0  0
   73.7160   42.7490   -6.9820 C   0  0  0  0  0  0  0  0  0  0  0  0
   74.4910   43.3910   -7.9500 C   0  0  0  0  0  0  0  0  0  0  0  0
   75.8370   43.6620   -7.7020 C   0  0  0  0  0  0  0  0  0  0  0  0
   76.4070   43.2910   -6.4860 C   0  0  0  0  0  0  0  0  0  0  0  0
   77.7310   43.5870   -6.3080 O   0  0  0  0  0  0  0  0  0  0  0  0
   75.6310   42.6490   -5.5190 C   0  0  0  0  0  0  0  0  0  0  0  0
   76.1900   42.2430   -4.2280 C   0  0  0  0  0  0  0  0  0  0  0  0
   77.3650   42.4520   -3.9320 O   0  0  0  0  0  0  0  0  0  0  0  0
   75.2850   41.5640   -3.2730 C   0  0  0  0  0  0  0  0  0  0  0  0
   75.8200   41.1990   -2.0510 O   0  0  0  0  0  0  0  0  0  0  0  0
   72.0270   41.4730   -2.1220 C   0  0  0  0  0  0  0  0  0  0  0  0
   71.0440   40.8910   -1.2950 C   0  0  0  0  0  0  0  0  0  0  0  0
   70.0090   41.7870   -0.6530 C   0  0  0  0  0  0  0  0  0  0  0  0
   70.3590   43.1040   -0.6610 F   0  0  0  0  0  0  0  0  0  0  0  0
   68.7890   41.7350   -1.2620 F   0  0  0  0  0  0  0  0  0  0  0  0
   70.7333   36.5679    2.2909 H   0  0  0  0  0  0  0  0  0  0  0  0
   69.8423   36.3964    0.7406 H   0  0  0  0  0  0  0  0  0  0  0  0
   71.6365   36.4818    0.7406 H   0  0  0  0  0  0  0  0  0  0  0  0
   70.0296   38.7581    1.9189 H   0  0  0  0  0  0  0  0  0  0  0  0
   71.6711   38.7607    1.1542 H   0  0  0  0  0  0  0  0  0  0  0  0
   69.6739   37.8837   -0.7609 H   0  0  0  0  0  0  0  0  0  0  0  0
   69.2095   39.4779   -0.0299 H   0  0  0  0  0  0  0  0  0  0  0  0
   72.0283   37.6288   -1.6246 H   0  0  0  0  0  0  0  0  0  0  0  0
   73.7391   38.6884   -3.0765 H   0  0  0  0  0  0  0  0  0  0  0  0
   72.6548   42.5362   -7.1784 H   0  0  0  0  0  0  0  0  0  0  0  0
   74.0396   43.6835   -8.9095 H   0  0  0  0  0  0  0  0  0  0  0  0
   76.4470   44.1676   -8.4651 H   0  0  0  0  0  0  0  0  0  0  0  0
   78.0030   44.4800   -6.2180 H   0  0  0  0  0  0  0  0  0  0  0  0
   76.7060   41.4190   -1.8430 H   0  0  0  0  0  0  0  0  0  0  0  0
   72.0237   42.5630   -2.2703 H   0  0  0  0  0  0  0  0  0  0  0  0
   69.9537   41.3941    0.3730 H   0  0  0  0  0  0  0  0  0  0  0  0
  1  2  1  0
  2  3  1  0
  3  4  1  0
  4  5  2  0
  5  6  1  0
  6  7  2  0
  7  8  1  0
  8  9  1  0
  9 10  1  0
 10 11  2  0
 11 12  1  0
 12 13  2  0
 13 14  1  0
 14 15  1  0
 14 16  2  0
 16 17  1  0
 17 18  2  0
 17 19  1  0
 19 20  1  0
  7 21  1  0
 21 22  2  0
 22 23  1  0
 23 24  1  0
 23 25  1  0
 22  4  1  0
 19  8  2  0
 16 10  1  0
  1 26  1  0
  1 27  1  0
  1 28  1  0
  2 29  1  0
  2 30  1  0
  3 31  1  0
  3 32  1  0
  5 33  1  0
  6 34  1  0
 11 35  1  0
 12 36  1  0
 13 37  1  0
 15 38  1  0
 20 39  1  0
 21 40  1  0
 23 41  1  0
M  END
>  <meeko>  (2) 
{"is_sidechain": [false], "free_energy": -7.799, "intermolecular_energy": -9.836, "internal_energy": -0.813}

$$$$
cand_044_out
     RDKit          3D

 41 43  0  0  0  0  0  0  0  0999 V2000
   77.4100   41.8910   -6.3390 C   0  0  0  0  0  0  0  0  0  0  0  0
   76.1870   42.7200   -6.6960 C   0  0  0  0  0  0  0  0  0  0  0  0
   75.7020   43.5420   -5.5010 C   0  0  0  0  0  0  0  0  0  0  0  0
   74.7720   42.7480   -4.6090 C   0  0  0  0  0  0  0  0  0  0  0  0
   73.5700   42.2720   -5.1580 C   0  0  0  0  0  0  0  0  0  0  0  0
   72.6600   41.5480   -4.3850 C   0  0  0  0  0  0  0  0  0  0  0  0
   72.9190   41.2870   -3.0370 C   0  0  0  0  0  0  0  0  0  0  0  0
   71.9850   40.5010   -2.2010 C   0  0  0  0  0  0  0  0  0  0  0  0
   72.6020   39.4290   -1.5640 O   0  0  0  0  0  0  0  0  0  0  0  0
   71.8510   38.6190   -0.7520 C   0  0  0  0  0  0  0  0  0  0  0  0
   72.5080   37.5500   -0.1410 C   0  0  0  0  0  0  0  0  0  0  0  0
   71.8010   36.6870    0.6990 C   0  0  0  0  0  0  0  0  0  0  0  0
   70.4400   36.8910    0.9290 C   0  0  0  0  0  0  0  0  0  0  0  0
   69.7870   37.9600    0.3180 C   0  0  0  0  0  0  0  0  0  0  0  0
   68.4530   38.1030    0.5860 O   0  0  0  0  0  0  0  0  0  0  0  0
   70.4940   38.8230   -0.5230 C   0  0  0  0  0  0  0  0  0  0  0  0
   69.8460   39.9570   -1.1830 C   0  0  0  0  0  0  0  0  0  0  0  0
   68.6530   40.2070   -1.0260 O   0  0  0  0  0  0  0  0  0  0  0  0
   70.6830   40.8090   -2.0590 C   0  0  0  0  0  0  0  0  0  0  0  0
   70.0640   41.8870   -2.6650 O   0  0  0  0  0  0  0  0  0  0  0  0
   74.1220   41.7560   -2.4870 C   0  0  0  0  0  0  0  0  0  0  0  0
   75.0520   42.4910   -3.2510 C   0  0  0  0  0  0  0  0  0  0  0  0
   76.3330   42.9510   -2.5920 C   0  0  0  0  0  0  0  0  0  0  0  0
   76.3400   44.2820   -2.3010 F   0  0  0  0  0  0  0  0  0  0  0  0
   76.5930   42.3220   -1.4090 F   0  0  0  0  0  0  0  0  0  0  0  0
   77.5034   41.8277   -5.2448 H   0  0  0  0  0  0  0  0  0  0  0  0
   77.3019   40.8792   -6.7569 H   0  0  0  0  0  0  0  0  0  0  0  0
   78.3098   42.3661   -6.7569 H   0  0  0  0  0  0  0  0  0  0  0  0
   76.4452   43.4028   -7.5189 H   0  0  0  0  0  0  0  0  0  0  0  0
   75.3800   42.0352   -6.9956 H   0  0  0  0  0  0  0  0  0  0  0  0
   76.5742   43.8606   -4.9113 H   0  0  0  0  0  0  0  0  0  0  0  0
   75.1458   44.4089   -5.8872 H   0  0  0  0  0  0  0  0  0  0  0  0
   73.3416   42.4730   -6.2151 H   0  0  0  0  0  0  0  0  0  0  0  0
   71.7298   41.1794   -4.8419 H   0  0  0  0  0  0  0  0  0  0  0  0
   73.5810   37.3875   -0.3208 H   0  0  0  0  0  0  0  0  0  0  0  0
   72.3184   35.8442    1.1806 H   0  0  0  0  0  0  0  0  0  0  0  0
   69.8841   36.2102    1.5905 H   0  0  0  0  0  0  0  0  0  0  0  0
   67.8380   37.4790    0.2520 H   0  0  0  0  0  0  0  0  0  0  0  0
   70.3370   42.1670   -3.5150 H   0  0  0  0  0  0  0  0  0  0  0  0
   74.3456   41.5445   -1.4310 H   0  0  0  0  0  0  0  0  0  0  0  0
   77.0948   42.7032   -3.3458 H   0  0  0  0  0  0  0  0  0  0  0  0
  1  2  1  0
  2  3  1  0
  3  4  1  0
  4  5  2  0
  5  6  1  0
  6  7  2  0
  7  8  1  0
  8  9  1  0
  9 10  1  0
 10 11  2  0
 11 12  1  0
 12 13  2  0
 13 14  1  0
 14 15  1  0
 14 16  2  0
 16 17  1  0
 17 18  2  0
 17 19  1  0
 19 20  1  0
  7 21  1  0
 21 22  2  0
 22 23  1  0
 23 24  1  0
 23 25  1  0
 22  4  1  0
 19  8  2  0
 16 10  1  0
  1 26  1  0
  1 27  1  0
  1 28  1  0
  2 29  1  0
  2 30  1  0
  3 31  1  0
  3 32  1  0
  5 33  1  0
  6 34  1  0
 11 35  1  0
 12 36  1  0
 13 37  1  0
 15 38  1  0
 20 39  1  0
 21 40  1  0
 23 41  1  0
M  END
>  <meeko>  (3) 
{"is_sidechain": [false], "free_energy": -7.769, "intermolecular_energy": -9.92, "internal_energy": -0.691}

$$$$
cand_044_out
     RDKit          3D

 41 43  0  0  0  0  0  0  0  0999 V2000
   77.0050   42.1190   -6.5650 C   0  0  0  0  0  0  0  0  0  0  0  0
   77.1610   42.9860   -5.3250 C   0  0  0  0  0  0  0  0  0  0  0  0
   75.8610   43.7210   -4.9910 C   0  0  0  0  0  0  0  0  0  0  0  0
   74.9090   42.8500   -4.1990 C   0  0  0  0  0  0  0  0  0  0  0  0
   75.3480   42.3330   -2.9690 C   0  0  0  0  0  0  0  0  0  0  0  0
   74.5260   41.5100   -2.1970 C   0  0  0  0  0  0  0  0  0  0  0  0
   73.2450   41.1670   -2.6370 C   0  0  0  0  0  0  0  0  0  0  0  0
   72.3440   40.3170   -1.8290 C   0  0  0  0  0  0  0  0  0  0  0  0
   71.0090   40.6950   -1.9320 O   0  0  0  0  0  0  0  0  0  0  0  0
   70.0640   39.9860   -1.2360 C   0  0  0  0  0  0  0  0  0  0  0  0
   68.7390   40.4050   -1.3610 C   0  0  0  0  0  0  0  0  0  0  0  0
   67.7260   39.7260   -0.6790 C   0  0  0  0  0  0  0  0  0  0  0  0
   68.0380   38.6290    0.1250 C   0  0  0  0  0  0  0  0  0  0  0  0
   69.3620   38.2120    0.2470 C   0  0  0  0  0  0  0  0  0  0  0  0
   69.5970   37.1290    1.0500 O   0  0  0  0  0  0  0  0  0  0  0  0
   70.3730   38.8910   -0.4350 C   0  0  0  0  0  0  0  0  0  0  0  0
   71.7760   38.4860   -0.3350 C   0  0  0  0  0  0  0  0  0  0  0  0
   72.1300   37.5260    0.3480 O   0  0  0  0  0  0  0  0  0  0  0  0
   72.7740   39.2760   -1.0930 C   0  0  0  0  0  0  0  0  0  0  0  0
   74.0940   38.8730   -1.0040 O   0  0  0  0  0  0  0  0  0  0  0  0
   72.8020   41.6870   -3.8630 C   0  0  0  0  0  0  0  0  0  0  0  0
   73.6170   42.5190   -4.6580 C   0  0  0  0  0  0  0  0  0  0  0  0
   73.0640   43.0510   -5.9600 C   0  0  0  0  0  0  0  0  0  0  0  0
   73.4090   42.2950   -7.0400 F   0  0  0  0  0  0  0  0  0  0  0  0
   71.7010   43.1160   -5.9870 F   0  0  0  0  0  0  0  0  0  0  0  0
   76.8177   41.0779   -6.2633 H   0  0  0  0  0  0  0  0  0  0  0  0
   76.1583   42.4851   -7.1642 H   0  0  0  0  0  0  0  0  0  0  0  0
   77.9262   42.1670   -7.1642 H   0  0  0  0  0  0  0  0  0  0  0  0
   77.4397   42.3470   -4.4741 H   0  0  0  0  0  0  0  0  0  0  0  0
   77.9417   43.7354   -5.5223 H   0  0  0  0  0  0  0  0  0  0  0  0
   76.1005   44.6164   -4.3986 H   0  0  0  0  0  0  0  0  0  0  0  0
   75.3692   43.9920   -5.9369 H   0  0  0  0  0  0  0  0  0  0  0  0
   76.3570   42.5809   -2.6078 H   0  0  0  0  0  0  0  0  0  0  0  0
   74.8906   41.1276   -1.2322 H   0  0  0  0  0  0  0  0  0  0  0  0
   68.4922   41.2688   -1.9957 H   0  0  0  0  0  0  0  0  0  0  0  0
   66.6813   40.0566   -0.7760 H   0  0  0  0  0  0  0  0  0  0  0  0
   67.2403   38.0944    0.6615 H   0  0  0  0  0  0  0  0  0  0  0  0
   70.0740   37.2340    1.8500 H   0  0  0  0  0  0  0  0  0  0  0  0
   74.6450   39.2200   -0.3310 H   0  0  0  0  0  0  0  0  0  0  0  0
   71.7896   41.4383   -4.2140 H   0  0  0  0  0  0  0  0  0  0  0  0
   73.5079   44.0558   -6.0175 H   0  0  0  0  0  0  0  0  0  0  0  0
  1  2  1  0
  2  3  1  0
  3  4  1  0
  4  5  2  0
  5  6  1  0
  6  7  2  0
  7  8  1  0
  8  9  1  0
  9 10  1  0
 10 11  2  0
 11 12  1  0
 12 13  2  0
 13 14  1  0
 14 15  1  0
 14 16  2  0
 16 17  1  0
 17 18  2  0
 17 19  1  0
 19 20  1  0
  7 21  1  0
 21 22  2  0
 22 23  1  0
 23 24  1  0
 23 25  1  0
 22  4  1  0
 19  8  2  0
 16 10  1  0
  1 26  1  0
  1 27  1  0
  1 28  1  0
  2 29  1  0
  2 30  1  0
  3 31  1  0
  3 32  1  0
  5 33  1  0
  6 34  1  0
 11 35  1  0
 12 36  1  0
 13 37  1  0
 15 38  1  0
 20 39  1  0
 21 40  1  0
 23 41  1  0
M  END
>  <meeko>  (4) 
{"is_sidechain": [false], "free_energy": -7.66, "intermolecular_energy": -9.876, "internal_energy": -0.594}

$$$$
cand_044_out
     RDKit          3D

 41 43  0  0  0  0  0  0  0  0999 V2000
   76.8770   44.0790   -5.4080 C   0  0  0  0  0  0  0  0  0  0  0  0
   76.0400   45.2690   -4.9650 C   0  0  0  0  0  0  0  0  0  0  0  0
   75.6890   45.1820   -3.4780 C   0  0  0  0  0  0  0  0  0  0  0  0
   74.4490   44.3460   -3.2390 C   0  0  0  0  0  0  0  0  0  0  0  0
   73.2050   44.8830   -3.6090 C   0  0  0  0  0  0  0  0  0  0  0  0
   72.0220   44.1720   -3.4000 C   0  0  0  0  0  0  0  0  0  0  0  0
   72.0450   42.9080   -2.8040 C   0  0  0  0  0  0  0  0  0  0  0  0
   70.8100   42.1220   -2.5930 C   0  0  0  0  0  0  0  0  0  0  0  0
   70.8740   41.3080   -1.4670 O   0  0  0  0  0  0  0  0  0  0  0  0
   69.7910   40.5280   -1.1500 C   0  0  0  0  0  0  0  0  0  0  0  0
   69.9030   39.7210   -0.0180 C   0  0  0  0  0  0  0  0  0  0  0  0
   68.8360   38.9020    0.3610 C   0  0  0  0  0  0  0  0  0  0  0  0
   67.6600   38.8910   -0.3900 C   0  0  0  0  0  0  0  0  0  0  0  0
   67.5520   39.6990   -1.5200 C   0  0  0  0  0  0  0  0  0  0  0  0
   66.3720   39.6410   -2.2100 O   0  0  0  0  0  0  0  0  0  0  0  0
   68.6190   40.5180   -1.8990 C   0  0  0  0  0  0  0  0  0  0  0  0
   68.5460   41.3820   -3.0770 C   0  0  0  0  0  0  0  0  0  0  0  0
   67.5430   41.4340   -3.7860 O   0  0  0  0  0  0  0  0  0  0  0  0
   69.7340   42.2080   -3.3960 C   0  0  0  0  0  0  0  0  0  0  0  0
   69.6470   43.0320   -4.5030 O   0  0  0  0  0  0  0  0  0  0  0  0
   73.2880   42.3680   -2.4390 C   0  0  0  0  0  0  0  0  0  0  0  0
   74.4940   43.0710   -2.6400 C   0  0  0  0  0  0  0  0  0  0  0  0
   75.7940   42.4160   -2.2330 C   0  0  0  0  0  0  0  0  0  0  0  0
   76.2100   42.7740   -0.9860 F   0  0  0  0  0  0  0  0  0  0  0  0
   75.7360   41.0520   -2.2160 F   0  0  0  0  0  0  0  0  0  0  0  0
   77.2526   43.5450   -4.5227 H   0  0  0  0  0  0  0  0  0  0  0  0
   76.2573   43.3989   -6.0109 H   0  0  0  0  0  0  0  0  0  0  0  0
   77.7265   44.4323   -6.0109 H   0  0  0  0  0  0  0  0  0  0  0  0
   76.6085   46.1933   -5.1451 H   0  0  0  0  0  0  0  0  0  0  0  0
   75.1037   45.2679   -5.5424 H   0  0  0  0  0  0  0  0  0  0  0  0
   76.5336   44.7278   -2.9391 H   0  0  0  0  0  0  0  0  0  0  0  0
   75.4889   46.2007   -3.1145 H   0  0  0  0  0  0  0  0  0  0  0  0
   73.1622   45.8803   -4.0711 H   0  0  0  0  0  0  0  0  0  0  0  0
   71.0616   44.6112   -3.7076 H   0  0  0  0  0  0  0  0  0  0  0  0
   70.8293   39.7292    0.5752 H   0  0  0  0  0  0  0  0  0  0  0  0
   68.9234   38.2646    1.2533 H   0  0  0  0  0  0  0  0  0  0  0  0
   66.8205   38.2462   -0.0908 H   0  0  0  0  0  0  0  0  0  0  0  0
   66.1870   40.2740   -2.8770 H   0  0  0  0  0  0  0  0  0  0  0  0
   70.4270   43.3250   -4.9320 H   0  0  0  0  0  0  0  0  0  0  0  0
   73.3226   41.3676   -1.9830 H   0  0  0  0  0  0  0  0  0  0  0  0
   76.4935   42.7708   -3.0042 H   0  0  0  0  0  0  0  0  0  0  0  0
  1  2  1  0
  2  3  1  0
  3  4  1  0
  4  5  2  0
  5  6  1  0
  6  7  2  0
  7  8  1  0
  8  9  1  0
  9 10  1  0
 10 11  2  0
 11 12  1  0
 12 13  2  0
 13 14  1  0
 14 15  1  0
 14 16  2  0
 16 17  1  0
 17 18  2  0
 17 19  1  0
 19 20  1  0
  7 21  1  0
 21 22  2  0
 22 23  1  0
 23 24  1  0
 23 25  1  0
 22  4  1  0
 19  8  2  0
 16 10  1  0
  1 26  1  0
  1 27  1  0
  1 28  1  0
  2 29  1  0
  2 30  1  0
  3 31  1  0
  3 32  1  0
  5 33  1  0
  6 34  1  0
 11 35  1  0
 12 36  1  0
 13 37  1  0
 15 38  1  0
 20 39  1  0
 21 40  1  0
 23 41  1  0
M  END
>  <meeko>  (5) 
{"is_sidechain": [false], "free_energy": -7.62, "intermolecular_energy": -9.975, "internal_energy": -0.443}

$$$$
cand_044_out
     RDKit          3D

 41 43  0  0  0  0  0  0  0  0999 V2000
   67.9230   39.7070   -1.0190 C   0  0  0  0  0  0  0  0  0  0  0  0
   69.0170   38.9660   -0.2670 C   0  0  0  0  0  0  0  0  0  0  0  0
   70.0430   39.9350    0.3240 C   0  0  0  0  0  0  0  0  0  0  0  0
   71.0980   40.3260   -0.6890 C   0  0  0  0  0  0  0  0  0  0  0  0
   70.9950   41.5840   -1.3040 C   0  0  0  0  0  0  0  0  0  0  0  0
   71.9250   41.9980   -2.2600 C   0  0  0  0  0  0  0  0  0  0  0  0
   72.9800   41.1630   -2.6380 C   0  0  0  0  0  0  0  0  0  0  0  0
   73.9930   41.5860   -3.6290 C   0  0  0  0  0  0  0  0  0  0  0  0
   73.4330   41.9680   -4.8440 O   0  0  0  0  0  0  0  0  0  0  0  0
   74.2610   42.3880   -5.8520 C   0  0  0  0  0  0  0  0  0  0  0  0
   73.6580   42.7520   -7.0570 C   0  0  0  0  0  0  0  0  0  0  0  0
   74.4440   43.1910   -8.1250 C   0  0  0  0  0  0  0  0  0  0  0  0
   75.8310   43.2660   -7.9890 C   0  0  0  0  0  0  0  0  0  0  0  0
   76.4310   42.9020   -6.7850 C   0  0  0  0  0  0  0  0  0  0  0  0
   77.7940   43.0010   -6.7190 O   0  0  0  0  0  0  0  0  0  0  0  0
   75.6440   42.4640   -5.7170 C   0  0  0  0  0  0  0  0  0  0  0  0
   76.2330   42.0740   -4.4350 C   0  0  0  0  0  0  0  0  0  0  0  0
   77.4450   42.1180   -4.2360 O   0  0  0  0  0  0  0  0  0  0  0  0
   75.3130   41.6180   -3.3680 C   0  0  0  0  0  0  0  0  0  0  0  0
   75.8800   41.2680   -2.1570 O   0  0  0  0  0  0  0  0  0  0  0  0
   73.0880   39.9080   -2.0200 C   0  0  0  0  0  0  0  0  0  0  0  0
   72.1580   39.4700   -1.0550 C   0  0  0  0  0  0  0  0  0  0  0  0
   72.3500   38.1100   -0.4230 C   0  0  0  0  0  0  0  0  0  0  0  0
   72.6030   37.1260   -1.3320 F   0  0  0  0  0  0  0  0  0  0  0  0
   73.3890   38.0610    0.4600 F   0  0  0  0  0  0  0  0  0  0  0  0
   67.2344   40.1734   -0.2990 H   0  0  0  0  0  0  0  0  0  0  0  0
   68.3752   40.4855   -1.6510 H   0  0  0  0  0  0  0  0  0  0  0  0
   67.3678   38.9983   -1.6510 H   0  0  0  0  0  0  0  0  0  0  0  0
   68.5608   38.3863    0.5490 H   0  0  0  0  0  0  0  0  0  0  0  0
   69.5352   38.3025   -0.9749 H   0  0  0  0  0  0  0  0  0  0  0  0
   69.5215   40.8423    0.6628 H   0  0  0  0  0  0  0  0  0  0  0  0
   70.5454   39.4304    1.1625 H   0  0  0  0  0  0  0  0  0  0  0  0
   70.1679   42.2547   -1.0282 H   0  0  0  0  0  0  0  0  0  0  0  0
   71.8261   42.9921   -2.7205 H   0  0  0  0  0  0  0  0  0  0  0  0
   72.5649   42.6932   -7.1655 H   0  0  0  0  0  0  0  0  0  0  0  0
   73.9690   43.4781   -9.0747 H   0  0  0  0  0  0  0  0  0  0  0  0
   76.4494   43.6117   -8.8305 H   0  0  0  0  0  0  0  0  0  0  0  0
   78.2410   42.7870   -5.9240 H   0  0  0  0  0  0  0  0  0  0  0  0
   76.7680   41.4970   -1.9710 H   0  0  0  0  0  0  0  0  0  0  0  0
   73.9224   39.2466   -2.2964 H   0  0  0  0  0  0  0  0  0  0  0  0
   71.3906   37.9441    0.0889 H   0  0  0  0  0  0  0  0  0  0  0  0
  1  2  1  0
  2  3  1  0
  3  4  1  0
  4  5  2  0
  5  6  1  0
  6  7  2  0
  7  8  1  0
  8  9  1  0
  9 10  1  0
 10 11  2  0
 11 12  1  0
 12 13  2  0
 13 14  1  0
 14 15  1  0
 14 16  2  0
 16 17  1  0
 17 18  2  0
 17 19  1  0
 19 20  1  0
  7 21  1  0
 21 22  2  0
 22 23  1  0
 23 24  1  0
 23 25  1  0
 22  4  1  0
 19  8  2  0
 16 10  1  0
  1 26  1  0
  1 27  1  0
  1 28  1  0
  2 29  1  0
  2 30  1  0
  3 31  1  0
  3 32  1  0
  5 33  1  0
  6 34  1  0
 11 35  1  0
 12 36  1  0
 13 37  1  0
 15 38  1  0
 20 39  1  0
 21 40  1  0
 23 41  1  0
M  END
>  <meeko>  (6) 
{"is_sidechain": [false], "free_energy": -7.613, "intermolecular_energy": -9.896, "internal_energy": -0.513}

$$$$
cand_044_out
     RDKit          3D

 41 43  0  0  0  0  0  0  0  0999 V2000
   67.5300   39.0520   -0.1060 C   0  0  0  0  0  0  0  0  0  0  0  0
   68.8840   38.4060    0.1430 C   0  0  0  0  0  0  0  0  0  0  0  0
   69.8570   39.3860    0.8050 C   0  0  0  0  0  0  0  0  0  0  0  0
   70.7910   40.0200   -0.2030 C   0  0  0  0  0  0  0  0  0  0  0  0
   70.4430   41.2720   -0.7360 C   0  0  0  0  0  0  0  0  0  0  0  0
   71.2520   41.9030   -1.6830 C   0  0  0  0  0  0  0  0  0  0  0  0
   72.4280   41.2970   -2.1340 C   0  0  0  0  0  0  0  0  0  0  0  0
   73.3160   41.9550   -3.1180 C   0  0  0  0  0  0  0  0  0  0  0  0
   74.2930   42.7430   -2.5200 O   0  0  0  0  0  0  0  0  0  0  0  0
   75.1890   43.4070   -3.3170 C   0  0  0  0  0  0  0  0  0  0  0  0
   76.1460   44.1940   -2.6760 C   0  0  0  0  0  0  0  0  0  0  0  0
   77.0900   44.8960   -3.4290 C   0  0  0  0  0  0  0  0  0  0  0  0
   77.0770   44.8110   -4.8220 C   0  0  0  0  0  0  0  0  0  0  0  0
   76.1200   44.0240   -5.4600 C   0  0  0  0  0  0  0  0  0  0  0  0
   76.1650   43.9850   -6.8270 O   0  0  0  0  0  0  0  0  0  0  0  0
   75.1770   43.3220   -4.7060 C   0  0  0  0  0  0  0  0  0  0  0  0
   74.1570   42.4830   -5.3360 C   0  0  0  0  0  0  0  0  0  0  0  0
   74.0840   42.3520   -6.5560 O   0  0  0  0  0  0  0  0  0  0  0  0
   73.2000   41.7850   -4.4470 C   0  0  0  0  0  0  0  0  0  0  0  0
   72.2500   40.9830   -5.0530 O   0  0  0  0  0  0  0  0  0  0  0  0
   72.7800   40.0490   -1.6000 C   0  0  0  0  0  0  0  0  0  0  0  0
   71.9750   39.3940   -0.6450 C   0  0  0  0  0  0  0  0  0  0  0  0
   72.4290   38.0570   -0.1040 C   0  0  0  0  0  0  0  0  0  0  0  0
   72.5120   37.0900   -1.0610 F   0  0  0  0  0  0  0  0  0  0  0  0
   73.6640   38.0940    0.4780 F   0  0  0  0  0  0  0  0  0  0  0  0
   67.0503   39.2809    0.8571 H   0  0  0  0  0  0  0  0  0  0  0  0
   67.6669   39.9818   -0.6776 H   0  0  0  0  0  0  0  0  0  0  0  0
   66.8934   38.3606   -0.6776 H   0  0  0  0  0  0  0  0  0  0  0  0
   68.7495   37.5353    0.8016 H   0  0  0  0  0  0  0  0  0  0  0  0
   69.3056   38.1008   -0.8261 H   0  0  0  0  0  0  0  0  0  0  0  0
   69.2796   40.1789    1.3029 H   0  0  0  0  0  0  0  0  0  0  0  0
   70.4662   38.8253    1.5293 H   0  0  0  0  0  0  0  0  0  0  0  0
   69.5175   41.7637   -0.4017 H   0  0  0  0  0  0  0  0  0  0  0  0
   70.9608   42.8874   -2.0783 H   0  0  0  0  0  0  0  0  0  0  0  0
   76.1572   44.2617   -1.5781 H   0  0  0  0  0  0  0  0  0  0  0  0
   77.8446   45.5166   -2.9235 H   0  0  0  0  0  0  0  0  0  0  0  0
   77.8204   45.3639   -5.4150 H   0  0  0  0  0  0  0  0  0  0  0  0
   76.1810   44.7830   -7.3190 H   0  0  0  0  0  0  0  0  0  0  0  0
   71.3390   41.1580   -4.9280 H   0  0  0  0  0  0  0  0  0  0  0  0
   73.7103   39.5673   -1.9355 H   0  0  0  0  0  0  0  0  0  0  0  0
   71.6513   37.8209    0.6373 H   0  0  0  0  0  0  0  0  0  0  0  0
  1  2  1  0
  2  3  1  0
  3  4  1  0
  4  5  2  0
  5  6  1  0
  6  7  2  0
  7  8  1  0
  8  9  1  0
  9 10  1  0
 10 11  2  0
 11 12  1  0
 12 13  2  0
 13 14  1  0
 14 15  1  0
 14 16  2  0
 16 17  1  0
 17 18  2  0
 17 19  1  0
 19 20  1  0
  7 21  1  0
 21 22  2  0
 22 23  1  0
 23 24  1  0
 23 25  1  0
 22  4  1  0
 19  8  2  0
 16 10  1  0
  1 26  1  0
  1 27  1  0
  1 28  1  0
  2 29  1  0
  2 30  1  0
  3 31  1  0
  3 32  1  0
  5 33  1  0
  6 34  1  0
 11 35  1  0
 12 36  1  0
 13 37  1  0
 15 38  1  0
 20 39  1  0
 21 40  1  0
 23 41  1  0
M  END
>  <meeko>  (7) 
{"is_sidechain": [false], "free_energy": -7.558, "intermolecular_energy": -9.526, "internal_energy": -0.812}

$$$$
cand_044_out
     RDKit          3D

 41 43  0  0  0  0  0  0  0  0999 V2000
   70.7280   36.4110    0.8700 C   0  0  0  0  0  0  0  0  0  0  0  0
   70.0660   37.7710    0.7110 C   0  0  0  0  0  0  0  0  0  0  0  0
   71.1020   38.8980    0.6970 C   0  0  0  0  0  0  0  0  0  0  0  0
   70.8820   39.8520   -0.4570 C   0  0  0  0  0  0  0  0  0  0  0  0
   69.9920   40.9230   -0.2730 C   0  0  0  0  0  0  0  0  0  0  0  0
   69.7310   41.8290   -1.3030 C   0  0  0  0  0  0  0  0  0  0  0  0
   70.3430   41.6860   -2.5510 C   0  0  0  0  0  0  0  0  0  0  0  0
   70.1040   42.6450   -3.6510 C   0  0  0  0  0  0  0  0  0  0  0  0
   68.7840   42.6460   -4.0890 O   0  0  0  0  0  0  0  0  0  0  0  0
   68.4230   43.4950   -5.1040 C   0  0  0  0  0  0  0  0  0  0  0  0
   67.0910   43.4560   -5.5170 C   0  0  0  0  0  0  0  0  0  0  0  0
   66.6560   44.2950   -6.5460 C   0  0  0  0  0  0  0  0  0  0  0  0
   67.5520   45.1720   -7.1600 C   0  0  0  0  0  0  0  0  0  0  0  0
   68.8810   45.2090   -6.7450 C   0  0  0  0  0  0  0  0  0  0  0  0
   69.7050   46.0910   -7.3880 O   0  0  0  0  0  0  0  0  0  0  0  0
   69.3150   44.3690   -5.7160 C   0  0  0  0  0  0  0  0  0  0  0  0
   70.7020   44.3770   -5.2480 C   0  0  0  0  0  0  0  0  0  0  0  0
   71.5490   45.1250   -5.7340 O   0  0  0  0  0  0  0  0  0  0  0  0
   71.0620   43.4450   -4.1550 C   0  0  0  0  0  0  0  0  0  0  0  0
   72.3710   43.4720   -3.7110 O   0  0  0  0  0  0  0  0  0  0  0  0
   71.2370   40.6200   -2.7350 C   0  0  0  0  0  0  0  0  0  0  0  0
   71.5120   39.6930   -1.7080 C   0  0  0  0  0  0  0  0  0  0  0  0
   72.4970   38.5790   -1.9790 C   0  0  0  0  0  0  0  0  0  0  0  0
   72.7650   38.4070   -3.3030 F   0  0  0  0  0  0  0  0  0  0  0  0
   73.7130   38.7710   -1.3870 F   0  0  0  0  0  0  0  0  0  0  0  0
   70.8401   36.1806    1.9397 H   0  0  0  0  0  0  0  0  0  0  0  0
   70.1038   35.6413    0.3926 H   0  0  0  0  0  0  0  0  0  0  0  0
   71.7189   36.4275    0.3926 H   0  0  0  0  0  0  0  0  0  0  0  0
   69.5058   37.7880   -0.2355 H   0  0  0  0  0  0  0  0  0  0  0  0
   69.3925   37.9304    1.5659 H   0  0  0  0  0  0  0  0  0  0  0  0
   71.0304   39.4587    1.6406 H   0  0  0  0  0  0  0  0  0  0  0  0
   72.0974   38.4448    0.5798 H   0  0  0  0  0  0  0  0  0  0  0  0
   69.4923   41.0501    0.6987 H   0  0  0  0  0  0  0  0  0  0  0  0
   69.0363   42.6641   -1.1301 H   0  0  0  0  0  0  0  0  0  0  0  0
   66.3843   42.7657   -5.0332 H   0  0  0  0  0  0  0  0  0  0  0  0
   65.6061   44.2645   -6.8728 H   0  0  0  0  0  0  0  0  0  0  0  0
   67.2090   45.8325   -7.9700 H   0  0  0  0  0  0  0  0  0  0  0  0
   70.5930   46.1950   -7.1050 H   0  0  0  0  0  0  0  0  0  0  0  0
   72.8320   42.6720   -3.5610 H   0  0  0  0  0  0  0  0  0  0  0  0
   71.7375   40.5041   -3.7077 H   0  0  0  0  0  0  0  0  0  0  0  0
   71.9875   37.6997   -1.5581 H   0  0  0  0  0  0  0  0  0  0  0  0
  1  2  1  0
  2  3  1  0
  3  4  1  0
  4  5  2  0
  5  6  1  0
  6  7  2  0
  7  8  1  0
  8  9  1  0
  9 10  1  0
 10 11  2  0
 11 12  1  0
 12 13  2  0
 13 14  1  0
 14 15  1  0
 14 16  2  0
 16 17  1  0
 17 18  2  0
 17 19  1  0
 19 20  1  0
  7 21  1  0
 21 22  2  0
 22 23  1  0
 23 24  1  0
 23 25  1  0
 22  4  1  0
 19  8  2  0
 16 10  1  0
  1 26  1  0
  1 27  1  0
  1 28  1  0
  2 29  1  0
  2 30  1  0
  3 31  1  0
  3 32  1  0
  5 33  1  0
  6 34  1  0
 11 35  1  0
 12 36  1  0
 13 37  1  0
 15 38  1  0
 20 39  1  0
 21 40  1  0
 23 41  1  0
M  END
>  <meeko>  (8) 
{"is_sidechain": [false], "free_energy": -7.55, "intermolecular_energy": -9.626, "internal_energy": -0.701}

$$$$
cand_044_out
     RDKit          3D

 41 43  0  0  0  0  0  0  0  0999 V2000
   70.7910   36.6440    0.8170 C   0  0  0  0  0  0  0  0  0  0  0  0
   70.3310   38.0620    1.1180 C   0  0  0  0  0  0  0  0  0  0  0  0
   71.4480   39.0770    0.8630 C   0  0  0  0  0  0  0  0  0  0  0  0
   71.1180   39.9990   -0.2910 C   0  0  0  0  0  0  0  0  0  0  0  0
   70.3140   41.1220   -0.0350 C   0  0  0  0  0  0  0  0  0  0  0  0
   69.9590   42.0030   -1.0580 C   0  0  0  0  0  0  0  0  0  0  0  0
   70.3870   41.7830   -2.3700 C   0  0  0  0  0  0  0  0  0  0  0  0
   70.0460   42.7140   -3.4680 C   0  0  0  0  0  0  0  0  0  0  0  0
   71.0090   43.7000   -3.6570 O   0  0  0  0  0  0  0  0  0  0  0  0
   70.8200   44.6280   -4.6490 C   0  0  0  0  0  0  0  0  0  0  0  0
   71.8050   45.6050   -4.7970 C   0  0  0  0  0  0  0  0  0  0  0  0
   71.6760   46.5800   -5.7890 C   0  0  0  0  0  0  0  0  0  0  0  0
   70.5630   46.5780   -6.6320 C   0  0  0  0  0  0  0  0  0  0  0  0
   69.5820   45.6010   -6.4820 C   0  0  0  0  0  0  0  0  0  0  0  0
   68.5190   45.6560   -7.3420 O   0  0  0  0  0  0  0  0  0  0  0  0
   69.7120   44.6260   -5.4900 C   0  0  0  0  0  0  0  0  0  0  0  0
   68.7050   43.5810   -5.2990 C   0  0  0  0  0  0  0  0  0  0  0  0
   67.7010   43.5080   -6.0050 O   0  0  0  0  0  0  0  0  0  0  0  0
   68.9340   42.5980   -4.2160 C   0  0  0  0  0  0  0  0  0  0  0  0
   67.9830   41.6060   -4.0560 O   0  0  0  0  0  0  0  0  0  0  0  0
   71.1950   40.6650   -2.6270 C   0  0  0  0  0  0  0  0  0  0  0  0
   71.5630   39.7620   -1.6080 C   0  0  0  0  0  0  0  0  0  0  0  0
   72.4490   38.5890   -1.9600 C   0  0  0  0  0  0  0  0  0  0  0  0
   72.6080   38.4190   -3.3030 F   0  0  0  0  0  0  0  0  0  0  0  0
   73.7140   38.6900   -1.4570 F   0  0  0  0  0  0  0  0  0  0  0  0
   70.9652   36.1069    1.7610 H   0  0  0  0  0  0  0  0  0  0  0  0
   70.0159   36.1226    0.2361 H   0  0  0  0  0  0  0  0  0  0  0  0
   71.7246   36.6769    0.2361 H   0  0  0  0  0  0  0  0  0  0  0  0
   69.4731   38.3044    0.4736 H   0  0  0  0  0  0  0  0  0  0  0  0
   70.0491   38.1166    2.1799 H   0  0  0  0  0  0  0  0  0  0  0  0
   71.5940   39.6810    1.7706 H   0  0  0  0  0  0  0  0  0  0  0  0
   72.3620   38.5216    0.6059 H   0  0  0  0  0  0  0  0  0  0  0  0
   69.9582   41.3104    0.9887 H   0  0  0  0  0  0  0  0  0  0  0  0
   69.3356   42.8799   -0.8289 H   0  0  0  0  0  0  0  0  0  0  0  0
   72.6822   45.6075   -4.1333 H   0  0  0  0  0  0  0  0  0  0  0  0
   72.4524   47.3504   -5.9062 H   0  0  0  0  0  0  0  0  0  0  0  0
   70.4613   47.3462   -7.4127 H   0  0  0  0  0  0  0  0  0  0  0  0
   68.5620   45.2170   -8.1690 H   0  0  0  0  0  0  0  0  0  0  0  0
   68.1590   40.7360   -4.3530 H   0  0  0  0  0  0  0  0  0  0  0  0
   71.5516   40.4878   -3.6524 H   0  0  0  0  0  0  0  0  0  0  0  0
   71.9136   37.7397   -1.5104 H   0  0  0  0  0  0  0  0  0  0  0  0
  1  2  1  0
  2  3  1  0
  3  4  1  0
  4  5  2  0
  5  6  1  0
  6  7  2  0
  7  8  1  0
  8  9  1  0
  9 10  1  0
 10 11  2  0
 11 12  1  0
 12 13  2  0
 13 14  1  0
 14 15  1  0
 14 16  2  0
 16 17  1  0
 17 18  2  0
 17 19  1  0
 19 20  1  0
  7 21  1  0
 21 22  2  0
 22 23  1  0
 23 24  1  0
 23 25  1  0
 22  4  1  0
 19  8  2  0
 16 10  1  0
  1 26  1  0
  1 27  1  0
  1 28  1  0
  2 29  1  0
  2 30  1  0
  3 31  1  0
  3 32  1  0
  5 33  1  0
  6 34  1  0
 11 35  1  0
 12 36  1  0
 13 37  1  0
 15 38  1  0
 20 39  1  0
 21 40  1  0
 23 41  1  0
M  END
>  <meeko>  (9) 
{"is_sidechain": [false], "free_energy": -7.503, "intermolecular_energy": -9.389, "internal_energy": -0.877}

$$$$
