cand_037_out
     RDKit          3D

 35 37  0  0  0  0  0  0  0  0999 V2000
   72.7820   37.4210   -0.4190 C   0  0  0  0  0  0  0  0  0  0  0  0
   71.5840   38.3240   -0.5250 C   0  0  0  0  0  0  0  0  0  0  0  0
   71.6120   39.3900   -1.4440 C   0  0  0  0  0  0  0  0  0  0  0  0
   70.5270   40.2680   -1.5880 C   0  0  0  0  0  0  0  0  0  0  0  0
   70.6070   41.3860   -2.5510 C   0  0  0  0  0  0  0  0  0  0  0  0
   71.7680   42.1380   -2.4110 O   0  0  0  0  0  0  0  0  0  0  0  0
   71.9700   43.2080   -3.2450 C   0  0  0  0  0  0  0  0  0  0  0  0
   73.1420   43.9440   -3.0600 C   0  0  0  0  0  0  0  0  0  0  0  0
   73.4080   45.0450   -3.8760 C   0  0  0  0  0  0  0  0  0  0  0  0
   72.5070   45.4090   -4.8780 C   0  0  0  0  0  0  0  0  0  0  0  0
   71.3390   44.6730   -5.0620 C   0  0  0  0  0  0  0  0  0  0  0  0
   70.5000   45.0850   -6.0610 O   0  0  0  0  0  0  0  0  0  0  0  0
   71.0710   43.5730   -4.2430 C   0  0  0  0  0  0  0  0  0  0  0  0
   69.8550   42.7720   -4.4020 C   0  0  0  0  0  0  0  0  0  0  0  0
   69.0180   43.0250   -5.2640 O   0  0  0  0  0  0  0  0  0  0  0  0
   69.6620   41.6300   -3.4790 C   0  0  0  0  0  0  0  0  0  0  0  0
   68.5170   40.8720   -3.6470 O   0  0  0  0  0  0  0  0  0  0  0  0
   69.4070   40.0780   -0.7720 C   0  0  0  0  0  0  0  0  0  0  0  0
   69.3680   39.0320    0.1540 C   0  0  0  0  0  0  0  0  0  0  0  0
   70.4530   38.1530    0.2980 C   0  0  0  0  0  0  0  0  0  0  0  0
   70.3570   37.0280    1.2970 C   0  0  0  0  0  0  0  0  0  0  0  0
   70.7630   37.3800    2.5500 F   0  0  0  0  0  0  0  0  0  0  0  0
   73.0157   37.2448    0.6414 H   0  0  0  0  0  0  0  0  0  0  0  0
   72.5627   36.4616   -0.9104 H   0  0  0  0  0  0  0  0  0  0  0  0
   73.6439   37.8961   -0.9104 H   0  0  0  0  0  0  0  0  0  0  0  0
   72.5076   39.5385   -2.0652 H   0  0  0  0  0  0  0  0  0  0  0  0
   73.8545   43.6568   -2.2727 H   0  0  0  0  0  0  0  0  0  0  0  0
   74.3298   45.6270   -3.7290 H   0  0  0  0  0  0  0  0  0  0  0  0
   72.7191   46.2757   -5.5213 H   0  0  0  0  0  0  0  0  0  0  0  0
   69.6450   45.4050   -5.8520 H   0  0  0  0  0  0  0  0  0  0  0  0
   67.6780   41.2880   -3.6510 H   0  0  0  0  0  0  0  0  0  0  0  0
   68.5477   40.7591   -0.8601 H   0  0  0  0  0  0  0  0  0  0  0  0
   68.4735   38.8954    0.7795 H   0  0  0  0  0  0  0  0  0  0  0  0
   69.3092   36.6974    1.3501 H   0  0  0  0  0  0  0  0  0  0  0  0
   71.0285   36.2284    0.9509 H   0  0  0  0  0  0  0  0  0  0  0  0
  1  2  1  0
  2  3  2  0
  3  4  1  0
  4  5  1  0
  5  6  1  0
  6  7  1  0
  7  8  2  0
  8  9  1  0
  9 10  2  0
 10 11  1  0
 11 12  1  0
 11 13  2  0
 13 14  1  0
 14 15  2  0
 14 16  1  0
 16 17  1  0
  4 18  2  0
 18 19  1  0
 19 20  2  0
 20 21  1  0
 21 22  1  0
 20  2  1  0
 16  5  2  0
 13  7  1  0
  1 23  1  0
  1 24  1  0
  1 25  1  0
  3 26  1  0
  8 27  1  0
  9 28  1  0
 10 29  1  0
 12 30  1  0
 17 31  1  0
 18 32  1  0
 19 33  1  0
 21 34  1  0
 21 35  1  0
M  END
>  <meeko>  (1) 
{"is_sidechain": [false], "free_energy": -7.796, "intermolecular_energy": -9.164, "internal_energy": -0.225}

$$$$
cand_037_out
     RDKit          3D

 35 37  0  0  0  0  0  0  0  0999 V2000
   68.7520   38.7350    0.3480 C   0  0  0  0  0  0  0  0  0  0  0  0
   70.1120   38.8030   -0.2910 C   0  0  0  0  0  0  0  0  0  0  0  0
   70.4160   39.8870   -1.1350 C   0  0  0  0  0  0  0  0  0  0  0  0
   71.6660   40.0050   -1.7620 C   0  0  0  0  0  0  0  0  0  0  0  0
   71.9360   41.1500   -2.6570 C   0  0  0  0  0  0  0  0  0  0  0  0
   73.1040   41.8280   -2.3290 O   0  0  0  0  0  0  0  0  0  0  0  0
   73.4750   42.9130   -3.0810 C   0  0  0  0  0  0  0  0  0  0  0  0
   74.6480   43.5730   -2.7070 C   0  0  0  0  0  0  0  0  0  0  0  0
   75.0820   44.6840   -3.4320 C   0  0  0  0  0  0  0  0  0  0  0  0
   74.3480   45.1360   -4.5300 C   0  0  0  0  0  0  0  0  0  0  0  0
   73.1790   44.4760   -4.9020 C   0  0  0  0  0  0  0  0  0  0  0  0
   72.5080   44.9700   -5.9870 O   0  0  0  0  0  0  0  0  0  0  0  0
   72.7430   43.3640   -4.1750 C   0  0  0  0  0  0  0  0  0  0  0  0
   71.5200   42.6420   -4.5310 C   0  0  0  0  0  0  0  0  0  0  0  0
   70.8240   42.9740   -5.4870 O   0  0  0  0  0  0  0  0  0  0  0  0
   71.1410   41.4810   -3.6920 C   0  0  0  0  0  0  0  0  0  0  0  0
   69.9930   40.7980   -4.0460 O   0  0  0  0  0  0  0  0  0  0  0  0
   72.6130   38.9990   -1.5480 C   0  0  0  0  0  0  0  0  0  0  0  0
   72.3230   37.9090   -0.7220 C   0  0  0  0  0  0  0  0  0  0  0  0
   71.0730   37.7900   -0.0950 C   0  0  0  0  0  0  0  0  0  0  0  0
   70.8130   36.6070    0.8030 C   0  0  0  0  0  0  0  0  0  0  0  0
   71.8420   36.3380    1.6560 F   0  0  0  0  0  0  0  0  0  0  0  0
   68.8605   38.7404    1.4426 H   0  0  0  0  0  0  0  0  0  0  0  0
   68.1556   39.6044    0.0343 H   0  0  0  0  0  0  0  0  0  0  0  0
   68.2453   37.8104    0.0343 H   0  0  0  0  0  0  0  0  0  0  0  0
   69.6545   40.6617   -1.3078 H   0  0  0  0  0  0  0  0  0  0  0  0
   75.2285   43.2178   -1.8428 H   0  0  0  0  0  0  0  0  0  0  0  0
   76.0050   45.2048   -3.1373 H   0  0  0  0  0  0  0  0  0  0  0  0
   74.6920   46.0115   -5.1003 H   0  0  0  0  0  0  0  0  0  0  0  0
   72.5710   45.8800   -6.2010 H   0  0  0  0  0  0  0  0  0  0  0  0
   69.2810   41.2560   -4.4480 H   0  0  0  0  0  0  0  0  0  0  0  0
   73.5971   39.0659   -2.0349 H   0  0  0  0  0  0  0  0  0  0  0  0
   73.0859   37.1331   -0.5611 H   0  0  0  0  0  0  0  0  0  0  0  0
   69.9113   36.8128    1.3984 H   0  0  0  0  0  0  0  0  0  0  0  0
   70.6910   35.7273    0.1539 H   0  0  0  0  0  0  0  0  0  0  0  0
  1  2  1  0
  2  3  2  0
  3  4  1  0
  4  5  1  0
  5  6  1  0
  6  7  1  0
  7  8  2  0
  8  9  1  0
  9 10  2  0
 10 11  1  0
 11 12  1  0
 11 13  2  0
 13 14  1  0
 14 15  2  0
 14 16  1  0
 16 17  1  0
  4 18  2  0
 18 19  1  0
 19 20  2  0
 20 21  1  0
 21 22  1  0
 20  2  1  0
 16  5  2  0
 13  7  1  0
  1 23  1  0
  1 24  1  0
  1 25  1  0
  3 26  1  0
  8 27  1  0
  9 28  1  0
 10 29  1  0
 12 30  1  0
 17 31  1  0
 18 32  1  0
 19 33  1  0
 21 34  1  0
 21 35  1  0
M  END
>  <meeko>  (2) 
{"is_sidechain": [false], "free_energy": -7.776, "intermolecular_energy": -9.202, "internal_energy": -0.162}

$$$$
cand_037_out
     RDKit          3D

 35 37  0  0  0  0  0  0  0  0999 V2000
   72.8320   38.0200   -0.4150 C   0  0  0  0  0  0  0  0  0  0  0  0
   71.4220   38.5430   -0.4320 C   0  0  0  0  0  0  0  0  0  0  0  0
   71.0790   39.5480   -1.3560 C   0  0  0  0  0  0  0  0  0  0  0  0
   69.7820   40.0790   -1.4190 C   0  0  0  0  0  0  0  0  0  0  0  0
   69.4700   41.1480   -2.3920 C   0  0  0  0  0  0  0  0  0  0  0  0
   70.5270   42.0310   -2.5810 O   0  0  0  0  0  0  0  0  0  0  0  0
   70.3720   43.0720   -3.4600 C   0  0  0  0  0  0  0  0  0  0  0  0
   71.4530   43.9430   -3.6090 C   0  0  0  0  0  0  0  0  0  0  0  0
   71.3610   45.0220   -4.4890 C   0  0  0  0  0  0  0  0  0  0  0  0
   70.1910   45.2320   -5.2220 C   0  0  0  0  0  0  0  0  0  0  0  0
   69.1140   44.3620   -5.0730 C   0  0  0  0  0  0  0  0  0  0  0  0
   67.9990   44.6240   -5.8200 O   0  0  0  0  0  0  0  0  0  0  0  0
   69.2050   43.2820   -4.1900 C   0  0  0  0  0  0  0  0  0  0  0  0
   68.0970   42.3430   -4.0030 C   0  0  0  0  0  0  0  0  0  0  0  0
   67.0380   42.4560   -4.6160 O   0  0  0  0  0  0  0  0  0  0  0  0
   68.2930   41.2360   -3.0380 C   0  0  0  0  0  0  0  0  0  0  0  0
   67.2450   40.3480   -2.8800 O   0  0  0  0  0  0  0  0  0  0  0  0
   68.8250   39.6020   -0.5180 C   0  0  0  0  0  0  0  0  0  0  0  0
   69.1520   38.6120    0.4130 C   0  0  0  0  0  0  0  0  0  0  0  0
   70.4500   38.0810    0.4770 C   0  0  0  0  0  0  0  0  0  0  0  0
   70.7510   37.0020    1.4870 C   0  0  0  0  0  0  0  0  0  0  0  0
   70.6570   35.7410    0.9760 F   0  0  0  0  0  0  0  0  0  0  0  0
   73.1648   37.8966    0.6262 H   0  0  0  0  0  0  0  0  0  0  0  0
   72.8689   37.0484   -0.9294 H   0  0  0  0  0  0  0  0  0  0  0  0
   73.4936   38.7325   -0.9294 H   0  0  0  0  0  0  0  0  0  0  0  0
   71.8474   39.9266   -2.0461 H   0  0  0  0  0  0  0  0  0  0  0  0
   72.3759   43.7789   -3.0335 H   0  0  0  0  0  0  0  0  0  0  0  0
   72.2122   45.7089   -4.6056 H   0  0  0  0  0  0  0  0  0  0  0  0
   70.1204   46.0829   -5.9156 H   0  0  0  0  0  0  0  0  0  0  0  0
   68.0720   45.1170   -6.6140 H   0  0  0  0  0  0  0  0  0  0  0  0
   66.9260   40.1480   -2.0220 H   0  0  0  0  0  0  0  0  0  0  0  0
   67.8038   40.0102   -0.5421 H   0  0  0  0  0  0  0  0  0  0  0  0
   68.3810   38.2436    1.1057 H   0  0  0  0  0  0  0  0  0  0  0  0
   71.7743   37.1510    1.8620 H   0  0  0  0  0  0  0  0  0  0  0  0
   69.9994   37.0858    2.2858 H   0  0  0  0  0  0  0  0  0  0  0  0
  1  2  1  0
  2  3  2  0
  3  4  1  0
  4  5  1  0
  5  6  1  0
  6  7  1  0
  7  8  2  0
  8  9  1  0
  9 10  2  0
 10 11  1  0
 11 12  1  0
 11 13  2  0
 13 14  1  0
 14 15  2  0
 14 16  1  0
 16 17  1  0
  4 18  2  0
 18 19  1  0
 19 20  2  0
 20 21  1  0
 21 22  1  0
 20  2  1  0
 16  5  2  0
 13  7  1  0
  1 23  1  0
  1 24  1  0
  1 25  1  0
  3 26  1  0
  8 27  1  0
  9 28  1  0
 10 29  1  0
 12 30  1  0
 17 31  1  0
 18 32  1  0
 19 33  1  0
 21 34  1  0
 21 35  1  0
M  END
>  <meeko>  (3) 
{"is_sidechain": [false], "free_energy": -7.749, "intermolecular_energy": -9.263, "internal_energy": -0.07}

$$$$
cand_037_out
     RDKit          3D

 35 37  0  0  0  0  0  0  0  0999 V2000
   76.1060   42.0180   -2.3040 C   0  0  0  0  0  0  0  0  0  0  0  0
   74.8270   42.7470   -2.6130 C   0  0  0  0  0  0  0  0  0  0  0  0
   73.6000   42.0930   -2.3940 C   0  0  0  0  0  0  0  0  0  0  0  0
   72.3740   42.7180   -2.6660 C   0  0  0  0  0  0  0  0  0  0  0  0
   71.1080   41.9870   -2.4400 C   0  0  0  0  0  0  0  0  0  0  0  0
   71.1520   41.1650   -1.3200 O   0  0  0  0  0  0  0  0  0  0  0  0
   70.0420   40.4290   -0.9940 C   0  0  0  0  0  0  0  0  0  0  0  0
   70.1350   39.6060    0.1310 C   0  0  0  0  0  0  0  0  0  0  0  0
   69.0400   38.8320    0.5180 C   0  0  0  0  0  0  0  0  0  0  0  0
   67.8530   38.8800   -0.2150 C   0  0  0  0  0  0  0  0  0  0  0  0
   67.7610   39.7020   -1.3350 C   0  0  0  0  0  0  0  0  0  0  0  0
   66.5700   39.7020   -2.0070 O   0  0  0  0  0  0  0  0  0  0  0  0
   68.8580   40.4760   -1.7240 C   0  0  0  0  0  0  0  0  0  0  0  0
   68.8060   41.3540   -2.8950 C   0  0  0  0  0  0  0  0  0  0  0  0
   67.7950   41.4560   -3.5870 O   0  0  0  0  0  0  0  0  0  0  0  0
   70.0250   42.1270   -3.2270 C   0  0  0  0  0  0  0  0  0  0  0  0
   69.9600   42.9630   -4.3270 O   0  0  0  0  0  0  0  0  0  0  0  0
   72.3910   44.0150   -3.1890 C   0  0  0  0  0  0  0  0  0  0  0  0
   73.6010   44.6740   -3.4240 C   0  0  0  0  0  0  0  0  0  0  0  0
   74.8280   44.0490   -3.1520 C   0  0  0  0  0  0  0  0  0  0  0  0
   76.1070   44.8070   -3.4040 C   0  0  0  0  0  0  0  0  0  0  0  0
   76.6700   45.3120   -2.2690 F   0  0  0  0  0  0  0  0  0  0  0  0
   76.2327   41.9458   -1.2137 H   0  0  0  0  0  0  0  0  0  0  0  0
   76.0656   41.0073   -2.7362 H   0  0  0  0  0  0  0  0  0  0  0  0
   76.9551   42.5679   -2.7362 H   0  0  0  0  0  0  0  0  0  0  0  0
   73.6026   41.0661   -1.9997 H   0  0  0  0  0  0  0  0  0  0  0  0
   71.0692   39.5681    0.7105 H   0  0  0  0  0  0  0  0  0  0  0  0
   69.1125   38.1825    1.4028 H   0  0  0  0  0  0  0  0  0  0  0  0
   66.9913   38.2691    0.0919 H   0  0  0  0  0  0  0  0  0  0  0  0
   65.9150   39.0650   -1.7990 H   0  0  0  0  0  0  0  0  0  0  0  0
   69.1840   42.9850   -4.8530 H   0  0  0  0  0  0  0  0  0  0  0  0
   71.4420   44.5219   -3.4178 H   0  0  0  0  0  0  0  0  0  0  0  0
   73.5915   45.6971   -3.8279 H   0  0  0  0  0  0  0  0  0  0  0  0
   76.8288   44.1253   -3.8777 H   0  0  0  0  0  0  0  0  0  0  0  0
   75.8563   45.6613   -4.0499 H   0  0  0  0  0  0  0  0  0  0  0  0
  1  2  1  0
  2  3  2  0
  3  4  1  0
  4  5  1  0
  5  6  1  0
  6  7  1  0
  7  8  2  0
  8  9  1  0
  9 10  2  0
 10 11  1  0
 11 12  1  0
 11 13  2  0
 13 14  1  0
 14 15  2  0
 14 16  1  0
 16 17  1  0
  4 18  2  0
 18 19  1  0
 19 20  2  0
 20 21  1  0
 21 22  1  0
 20  2  1  0
 16  5  2  0
 13  7  1  0
  1 23  1  0
  1 24  1  0
  1 25  1  0
  3 26  1  0
  8 27  1  0
  9 28  1  0
 10 29  1  0
 12 30  1  0
 17 31  1  0
 18 32  1  0
 19 33  1  0
 21 34  1  0
 21 35  1  0
M  END
>  <meeko>  (4) 
{"is_sidechain": [false], "free_energy": -7.55, "intermolecular_energy": -9.1, "internal_energy": 0.002}

$$$$
cand_037_out
     RDKit          3D

 35 37  0  0  0  0  0  0  0  0999 V2000
   73.8980   45.8260   -3.3050 C   0  0  0  0  0  0  0  0  0  0  0  0
   73.1580   44.6300   -3.8380 C   0  0  0  0  0  0  0  0  0  0  0  0
   72.9630   43.5190   -2.9970 C   0  0  0  0  0  0  0  0  0  0  0  0
   72.2840   42.3730   -3.4370 C   0  0  0  0  0  0  0  0  0  0  0  0
   72.1190   41.2190   -2.5270 C   0  0  0  0  0  0  0  0  0  0  0  0
   70.8170   41.0850   -2.0560 O   0  0  0  0  0  0  0  0  0  0  0  0
   70.5240   40.0530   -1.2020 C   0  0  0  0  0  0  0  0  0  0  0  0
   69.2080   39.9650   -0.7430 C   0  0  0  0  0  0  0  0  0  0  0  0
   68.8430   38.9370    0.1280 C   0  0  0  0  0  0  0  0  0  0  0  0
   69.7900   37.9970    0.5400 C   0  0  0  0  0  0  0  0  0  0  0  0
   71.1020   38.0860    0.0800 C   0  0  0  0  0  0  0  0  0  0  0  0
   71.9780   37.1340    0.5220 O   0  0  0  0  0  0  0  0  0  0  0  0
   71.4680   39.1170   -0.7910 C   0  0  0  0  0  0  0  0  0  0  0  0
   72.8350   39.2480   -1.2970 C   0  0  0  0  0  0  0  0  0  0  0  0
   73.7230   38.4570   -0.9870 O   0  0  0  0  0  0  0  0  0  0  0  0
   73.1220   40.3790   -2.2100 C   0  0  0  0  0  0  0  0  0  0  0  0
   74.4130   40.4860   -2.6930 O   0  0  0  0  0  0  0  0  0  0  0  0
   71.8160   42.3430   -4.7540 C   0  0  0  0  0  0  0  0  0  0  0  0
   72.0120   43.4330   -5.6060 C   0  0  0  0  0  0  0  0  0  0  0  0
   72.6920   44.5800   -5.1670 C   0  0  0  0  0  0  0  0  0  0  0  0
   72.8620   45.7390   -6.1160 C   0  0  0  0  0  0  0  0  0  0  0  0
   73.7840   45.5080   -7.0940 F   0  0  0  0  0  0  0  0  0  0  0  0
   73.8850   45.8050   -2.2053 H   0  0  0  0  0  0  0  0  0  0  0  0
   74.9389   45.8013   -3.6600 H   0  0  0  0  0  0  0  0  0  0  0  0
   73.4113   46.7464   -3.6600 H   0  0  0  0  0  0  0  0  0  0  0  0
   73.3527   43.5498   -1.9688 H   0  0  0  0  0  0  0  0  0  0  0  0
   68.4606   40.7042   -1.0671 H   0  0  0  0  0  0  0  0  0  0  0  0
   67.8069   38.8672    0.4907 H   0  0  0  0  0  0  0  0  0  0  0  0
   69.5005   37.1877    1.2265 H   0  0  0  0  0  0  0  0  0  0  0  0
   72.6480   37.3620    1.1350 H   0  0  0  0  0  0  0  0  0  0  0  0
   74.5960   41.0490   -3.4190 H   0  0  0  0  0  0  0  0  0  0  0  0
   71.2878   41.4517   -5.1235 H   0  0  0  0  0  0  0  0  0  0  0  0
   71.6278   43.3917   -6.6359 H   0  0  0  0  0  0  0  0  0  0  0  0
   71.8922   45.9444   -6.5927 H   0  0  0  0  0  0  0  0  0  0  0  0
   73.2237   46.5927   -5.5241 H   0  0  0  0  0  0  0  0  0  0  0  0
  1  2  1  0
  2  3  2  0
  3  4  1  0
  4  5  1  0
  5  6  1  0
  6  7  1  0
  7  8  2  0
  8  9  1  0
  9 10  2  0
 10 11  1  0
 11 12  1  0
 11 13  2  0
 13 14  1  0
 14 15  2  0
 14 16  1  0
 16 17  1  0
  4 18  2  0
 18 19  1  0
 19 20  2  0
 20 21  1  0
 21 22  1  0
 20  2  1  0
 16  5  2  0
 13  7  1  0
  1 23  1  0
  1 24  1  0
  1 25  1  0
  3 26  1  0
  8 27  1  0
  9 28  1  0
 10 29  1  0
 12 30  1  0
 17 31  1  0
 18 32  1  0
 19 33  1  0
 21 34  1  0
 21 35  1  0
M  END
>  <meeko>  (5) 
{"is_sidechain": [false], "free_energy": -7.547, "intermolecular_energy": -8.714, "internal_energy": -0.382}

$$$$
cand_037_out
     RDKit          3D

 35 37  0  0  0  0  0  0  0  0999 V2000
   73.6720   42.7220   -6.9100 C   0  0  0  0  0  0  0  0  0  0  0  0
   73.3580   43.0760   -5.4820 C   0  0  0  0  0  0  0  0  0  0  0  0
   73.0740   42.0420   -4.5710 C   0  0  0  0  0  0  0  0  0  0  0  0
   72.7710   42.3070   -3.2270 C   0  0  0  0  0  0  0  0  0  0  0  0
   72.4590   41.1920   -2.3070 C   0  0  0  0  0  0  0  0  0  0  0  0
   71.1030   41.0940   -2.0170 O   0  0  0  0  0  0  0  0  0  0  0  0
   70.6750   40.1000   -1.1760 C   0  0  0  0  0  0  0  0  0  0  0  0
   69.3070   40.0470   -0.9000 C   0  0  0  0  0  0  0  0  0  0  0  0
   68.8060   39.0590   -0.0520 C   0  0  0  0  0  0  0  0  0  0  0  0
   69.6690   38.1220    0.5200 C   0  0  0  0  0  0  0  0  0  0  0  0
   71.0320   38.1760    0.2440 C   0  0  0  0  0  0  0  0  0  0  0  0
   71.8210   37.2280    0.8370 O   0  0  0  0  0  0  0  0  0  0  0  0
   71.5350   39.1670   -0.6040 C   0  0  0  0  0  0  0  0  0  0  0  0
   72.9610   39.2590   -0.9210 C   0  0  0  0  0  0  0  0  0  0  0  0
   73.7820   38.4690   -0.4620 O   0  0  0  0  0  0  0  0  0  0  0  0
   73.3930   40.3510   -1.8250 C   0  0  0  0  0  0  0  0  0  0  0  0
   74.7400   40.4200   -2.1280 O   0  0  0  0  0  0  0  0  0  0  0  0
   72.7320   43.6400   -2.8060 C   0  0  0  0  0  0  0  0  0  0  0  0
   73.0000   44.6790   -3.7010 C   0  0  0  0  0  0  0  0  0  0  0  0
   73.3030   44.4150   -5.0460 C   0  0  0  0  0  0  0  0  0  0  0  0
   73.6030   45.5680   -5.9700 C   0  0  0  0  0  0  0  0  0  0  0  0
   72.4880   46.1280   -6.5180 F   0  0  0  0  0  0  0  0  0  0  0  0
   74.4018   41.8992   -6.9318 H   0  0  0  0  0  0  0  0  0  0  0  0
   72.7500   42.4080   -7.4212 H   0  0  0  0  0  0  0  0  0  0  0  0
   74.0938   43.5999   -7.4212 H   0  0  0  0  0  0  0  0  0  0  0  0
   73.0899   40.9994   -4.9214 H   0  0  0  0  0  0  0  0  0  0  0  0
   68.6254   40.7834   -1.3507 H   0  0  0  0  0  0  0  0  0  0  0  0
   67.7287   39.0180    0.1665 H   0  0  0  0  0  0  0  0  0  0  0  0
   69.2723   37.3428    1.1874 H   0  0  0  0  0  0  0  0  0  0  0  0
   72.7530   37.2850    0.7680 H   0  0  0  0  0  0  0  0  0  0  0  0
   75.2220   39.6360   -2.3030 H   0  0  0  0  0  0  0  0  0  0  0  0
   72.4877   43.8731   -1.7591 H   0  0  0  0  0  0  0  0  0  0  0  0
   72.9731   45.7199   -3.3462 H   0  0  0  0  0  0  0  0  0  0  0  0
   74.1372   46.3420   -5.3994 H   0  0  0  0  0  0  0  0  0  0  0  0
   74.2070   45.1705   -6.7989 H   0  0  0  0  0  0  0  0  0  0  0  0
  1  2  1  0
  2  3  2  0
  3  4  1  0
  4  5  1  0
  5  6  1  0
  6  7  1  0
  7  8  2  0
  8  9  1  0
  9 10  2  0
 10 11  1  0
 11 12  1  0
 11 13  2  0
 13 14  1  0
 14 15  2  0
 14 16  1  0
 16 17  1  0
  4 18  2  0
 18 19  1  0
 19 20  2  0
 20 21  1  0
 21 22  1  0
 20  2  1  0
 16  5  2  0
 13  7  1  0
  1 23  1  0
  1 24  1  0
  1 25  1  0
  3 26  1  0
  8 27  1  0
  9 28  1  0
 10 29  1  0
 12 30  1  0
 17 31  1  0
 18 32  1  0
 19 33  1  0
 21 34  1  0
 21 35  1  0
M  END
>  <meeko>  (6) 
{"is_sidechain": [false], "free_energy": -7.533, "intermolecular_energy": -8.692, "internal_energy": -0.387}

$$$$
cand_037_out
     RDKit          3D

 35 37  0  0  0  0  0  0  0  0999 V2000
   73.4280   42.4530   -6.4130 C   0  0  0  0  0  0  0  0  0  0  0  0
   73.7480   42.3090   -4.9500 C   0  0  0  0  0  0  0  0  0  0  0  0
   72.9370   41.4790   -4.1530 C   0  0  0  0  0  0  0  0  0  0  0  0
   73.1820   41.3080   -2.7820 C   0  0  0  0  0  0  0  0  0  0  0  0
   72.2930   40.4420   -1.9780 C   0  0  0  0  0  0  0  0  0  0  0  0
   70.9580   40.8240   -2.0490 O   0  0  0  0  0  0  0  0  0  0  0  0
   70.0240   40.1040   -1.3500 C   0  0  0  0  0  0  0  0  0  0  0  0
   68.6980   40.5310   -1.4380 C   0  0  0  0  0  0  0  0  0  0  0  0
   67.6970   39.8410   -0.7510 C   0  0  0  0  0  0  0  0  0  0  0  0
   68.0200   38.7240    0.0230 C   0  0  0  0  0  0  0  0  0  0  0  0
   69.3440   38.2990    0.1090 C   0  0  0  0  0  0  0  0  0  0  0  0
   69.5900   37.1990    0.8830 O   0  0  0  0  0  0  0  0  0  0  0  0
   70.3460   38.9910   -0.5780 C   0  0  0  0  0  0  0  0  0  0  0  0
   71.7490   38.5790   -0.5140 C   0  0  0  0  0  0  0  0  0  0  0  0
   72.1120   37.6030    0.1390 O   0  0  0  0  0  0  0  0  0  0  0  0
   72.7350   39.3840   -1.2730 C   0  0  0  0  0  0  0  0  0  0  0  0
   74.0550   38.9770   -1.2170 O   0  0  0  0  0  0  0  0  0  0  0  0
   74.2490   42.0040   -2.2060 C   0  0  0  0  0  0  0  0  0  0  0  0
   75.0560   42.8410   -2.9800 C   0  0  0  0  0  0  0  0  0  0  0  0
   74.8120   43.0140   -4.3520 C   0  0  0  0  0  0  0  0  0  0  0  0
   75.7220   43.9130   -5.1500 C   0  0  0  0  0  0  0  0  0  0  0  0
   76.7290   43.2430   -5.7800 F   0  0  0  0  0  0  0  0  0  0  0  0
   72.4304   42.9019   -6.5277 H   0  0  0  0  0  0  0  0  0  0  0  0
   74.1784   43.1002   -6.8905 H   0  0  0  0  0  0  0  0  0  0  0  0
   73.4413   41.4621   -6.8905 H   0  0  0  0  0  0  0  0  0  0  0  0
   72.0903   40.9515   -4.6165 H   0  0  0  0  0  0  0  0  0  0  0  0
   68.4418   41.4100   -2.0478 H   0  0  0  0  0  0  0  0  0  0  0  0
   66.6521   40.1778   -0.8195 H   0  0  0  0  0  0  0  0  0  0  0  0
   67.2306   38.1811    0.5635 H   0  0  0  0  0  0  0  0  0  0  0  0
   69.8010   36.3800    0.4800 H   0  0  0  0  0  0  0  0  0  0  0  0
   74.5740   38.9630   -1.9970 H   0  0  0  0  0  0  0  0  0  0  0  0
   74.4552   41.8912   -1.1314 H   0  0  0  0  0  0  0  0  0  0  0  0
   75.8953   43.3726   -2.5077 H   0  0  0  0  0  0  0  0  0  0  0  0
   75.1199   44.4325   -5.9101 H   0  0  0  0  0  0  0  0  0  0  0  0
   76.1906   44.6120   -4.4416 H   0  0  0  0  0  0  0  0  0  0  0  0
  1  2  1  0
  2  3  2  0
  3  4  1  0
  4  5  1  0
  5  6  1  0
  6  7  1  0
  7  8  2  0
  8  9  1  0
  9 10  2  0
 10 11  1  0
 11 12  1  0
 11 13  2  0
 13 14  1  0
 14 15  2  0
 14 16  1  0
 16 17  1  0
  4 18  2  0
 18 19  1  0
 19 20  2  0
 20 21  1  0
 21 22  1  0
 20  2  1  0
 16  5  2  0
 13  7  1  0
  1 23  1  0
  1 24  1  0
  1 25  1  0
  3 26  1  0
  8 27  1  0
  9 28  1  0
 10 29  1  0
 12 30  1  0
 17 31  1  0
 18 32  1  0
 19 33  1  0
 21 34  1  0
 21 35  1  0
M  END
>  <meeko>  (7) 
{"is_sidechain": [false], "free_energy": -7.492, "intermolecular_energy": -8.739, "internal_energy": -0.292}

$$$$
cand_037_out
     RDKit          3D

 35 37  0  0  0  0  0  0  0  0999 V2000
   75.3870   43.9740   -2.8710 C   0  0  0  0  0  0  0  0  0  0  0  0
   74.2980   43.1430   -3.4920 C   0  0  0  0  0  0  0  0  0  0  0  0
   73.5230   42.3070   -2.6670 C   0  0  0  0  0  0  0  0  0  0  0  0
   72.4950   41.5070   -3.1860 C   0  0  0  0  0  0  0  0  0  0  0  0
   71.7190   40.6270   -2.2860 C   0  0  0  0  0  0  0  0  0  0  0  0
   72.4770   39.5860   -1.7620 O   0  0  0  0  0  0  0  0  0  0  0  0
   71.8790   38.6950   -0.9090 C   0  0  0  0  0  0  0  0  0  0  0  0
   72.6740   37.6570   -0.4170 C   0  0  0  0  0  0  0  0  0  0  0  0
   72.1270   36.7160    0.4570 C   0  0  0  0  0  0  0  0  0  0  0  0
   70.7880   36.8110    0.8410 C   0  0  0  0  0  0  0  0  0  0  0  0
   69.9980   37.8470    0.3510 C   0  0  0  0  0  0  0  0  0  0  0  0
   68.6960   37.8820    0.7680 O   0  0  0  0  0  0  0  0  0  0  0  0
   70.5450   38.7890   -0.5260 C   0  0  0  0  0  0  0  0  0  0  0  0
   69.7490   39.8930   -1.0650 C   0  0  0  0  0  0  0  0  0  0  0  0
   68.5670   40.0490   -0.7680 O   0  0  0  0  0  0  0  0  0  0  0  0
   70.4220   40.8330   -1.9920 C   0  0  0  0  0  0  0  0  0  0  0  0
   69.6650   41.8800   -2.4840 O   0  0  0  0  0  0  0  0  0  0  0  0
   72.2640   41.5360   -4.5650 C   0  0  0  0  0  0  0  0  0  0  0  0
   73.0320   42.3520   -5.4010 C   0  0  0  0  0  0  0  0  0  0  0  0
   74.0610   43.1530   -4.8810 C   0  0  0  0  0  0  0  0  0  0  0  0
   74.8490   44.0310   -5.8190 C   0  0  0  0  0  0  0  0  0  0  0  0
   74.1790   44.3390   -6.9660 F   0  0  0  0  0  0  0  0  0  0  0  0
   75.3121   43.9168   -1.7750 H   0  0  0  0  0  0  0  0  0  0  0  0
   76.3675   43.5925   -3.1919 H   0  0  0  0  0  0  0  0  0  0  0  0
   75.2779   45.0205   -3.1919 H   0  0  0  0  0  0  0  0  0  0  0  0
   73.7290   42.2804   -1.5868 H   0  0  0  0  0  0  0  0  0  0  0  0
   73.7294   37.5813   -0.7178 H   0  0  0  0  0  0  0  0  0  0  0  0
   72.7522   35.8979    0.8440 H   0  0  0  0  0  0  0  0  0  0  0  0
   70.3582   36.0685    1.5295 H   0  0  0  0  0  0  0  0  0  0  0  0
   68.0040   37.9510    0.1400 H   0  0  0  0  0  0  0  0  0  0  0  0
   68.7600   41.9530   -2.2520 H   0  0  0  0  0  0  0  0  0  0  0  0
   71.4693   40.9099   -4.9967 H   0  0  0  0  0  0  0  0  0  0  0  0
   72.8271   42.3666   -6.4816 H   0  0  0  0  0  0  0  0  0  0  0  0
   75.0939   44.9675   -5.2965 H   0  0  0  0  0  0  0  0  0  0  0  0
   75.7485   43.4688   -6.1102 H   0  0  0  0  0  0  0  0  0  0  0  0
  1  2  1  0
  2  3  2  0
  3  4  1  0
  4  5  1  0
  5  6  1  0
  6  7  1  0
  7  8  2  0
  8  9  1  0
  9 10  2  0
 10 11  1  0
 11 12  1  0
 11 13  2  0
 13 14  1  0
 14 15  2  0
 14 16  1  0
 16 17  1  0
  4 18  2  0
 18 19  1  0
 19 20  2  0
 20 21  1  0
 21 22  1  0
 20  2  1  0
 16  5  2  0
 13  7  1  0
  1 23  1  0
  1 24  1  0
  1 25  1  0
  3 26  1  0
  8 27  1  0
  9 28  1  0
 10 29  1  0
 12 30  1  0
 17 31  1  0
 18 32  1  0
 19 33  1  0
 21 34  1  0
 21 35  1  0
M  END
>  <meeko>  (8) 
{"is_sidechain": [false], "free_energy": -7.471, "intermolecular_energy": -8.661, "internal_energy": -0.344}

$$$$
cand_037_out
     RDKit          3D

 35 37  0  0  0  0  0  0  0  0999 V2000
   69.9770   38.5950    0.9320 C   0  0  0  0  0  0  0  0  0  0  0  0
   70.7810   38.9110   -0.3000 C   0  0  0  0  0  0  0  0  0  0  0  0
   70.4640   40.0630   -1.0440 C   0  0  0  0  0  0  0  0  0  0  0  0
   71.1740   40.4090   -2.2030 C   0  0  0  0  0  0  0  0  0  0  0  0
   70.7940   41.6180   -2.9660 C   0  0  0  0  0  0  0  0  0  0  0  0
   71.7760   42.6020   -2.9420 O   0  0  0  0  0  0  0  0  0  0  0  0
   71.5530   43.7770   -3.6120 C   0  0  0  0  0  0  0  0  0  0  0  0
   72.5590   44.7440   -3.5490 C   0  0  0  0  0  0  0  0  0  0  0  0
   72.3960   45.9620   -4.2110 C   0  0  0  0  0  0  0  0  0  0  0  0
   71.2300   46.2150   -4.9360 C   0  0  0  0  0  0  0  0  0  0  0  0
   70.2280   45.2500   -4.9980 C   0  0  0  0  0  0  0  0  0  0  0  0
   69.1130   45.5630   -5.7250 O   0  0  0  0  0  0  0  0  0  0  0  0
   70.3910   44.0310   -4.3340 C   0  0  0  0  0  0  0  0  0  0  0  0
   69.3630   42.9890   -4.3730 C   0  0  0  0  0  0  0  0  0  0  0  0
   68.3130   43.1340   -4.9940 O   0  0  0  0  0  0  0  0  0  0  0  0
   69.6290   41.7350   -3.6300 C   0  0  0  0  0  0  0  0  0  0  0  0
   68.6580   40.7530   -3.6850 O   0  0  0  0  0  0  0  0  0  0  0  0
   72.2050   39.5660   -2.6270 C   0  0  0  0  0  0  0  0  0  0  0  0
   72.5250   38.4120   -1.9060 C   0  0  0  0  0  0  0  0  0  0  0  0
   71.8150   38.0640   -0.7460 C   0  0  0  0  0  0  0  0  0  0  0  0
   72.2090   36.8200    0.0090 C   0  0  0  0  0  0  0  0  0  0  0  0
   73.3200   36.9840    0.7820 F   0  0  0  0  0  0  0  0  0  0  0  0
   70.5714   38.8286    1.8276 H   0  0  0  0  0  0  0  0  0  0  0  0
   69.0574   39.1986    0.9345 H   0  0  0  0  0  0  0  0  0  0  0  0
   69.7145   37.5268    0.9345 H   0  0  0  0  0  0  0  0  0  0  0  0
   69.6388   40.7081   -0.7080 H   0  0  0  0  0  0  0  0  0  0  0  0
   73.4784   44.5459   -2.9785 H   0  0  0  0  0  0  0  0  0  0  0  0
   73.1878   46.7240   -4.1614 H   0  0  0  0  0  0  0  0  0  0  0  0
   71.1030   47.1752   -5.4575 H   0  0  0  0  0  0  0  0  0  0  0  0
   68.5950   44.8810   -6.1050 H   0  0  0  0  0  0  0  0  0  0  0  0
   68.1790   40.6120   -4.4780 H   0  0  0  0  0  0  0  0  0  0  0  0
   72.7705   39.8132   -3.5375 H   0  0  0  0  0  0  0  0  0  0  0  0
   73.3456   37.7668   -2.2528 H   0  0  0  0  0  0  0  0  0  0  0  0
   71.3718   36.5274    0.6597 H   0  0  0  0  0  0  0  0  0  0  0  0
   72.4448   36.0480   -0.7383 H   0  0  0  0  0  0  0  0  0  0  0  0
  1  2  1  0
  2  3  2  0
  3  4  1  0
  4  5  1  0
  5  6  1  0
  6  7  1  0
  7  8  2  0
  8  9  1  0
  9 10  2  0
 10 11  1  0
 11 12  1  0
 11 13  2  0
 13 14  1  0
 14 15  2  0
 14 16  1  0
 16 17  1  0
  4 18  2  0
 18 19  1  0
 19 20  2  0
 20 21  1  0
 21 22  1  0
 20  2  1  0
 16  5  2  0
 13  7  1  0
  1 23  1  0
  1 24  1  0
  1 25  1  0
  3 26  1  0
  8 27  1  0
  9 28  1  0
 10 29  1  0
 12 30  1  0
 17 31  1  0
 18 32  1  0
 19 33  1  0
 21 34  1  0
 21 35  1  0
M  END
>  <meeko>  (9) 
{"is_sidechain": [false], "free_energy": -7.422, "intermolecular_energy": -8.619, "internal_energy": -0.329}

$$$$
