cand_054_out
     RDKit          3D

 46 48  0  0  0  0  0  0  0  0999 V2000
   73.2400   45.6960   -4.5600 C   0  0  0  0  0  0  0  0  0  0  0  0
   72.7920   44.4990   -5.3870 C   0  0  0  0  0  0  0  0  0  0  0  0
   73.8800   43.5130   -5.5480 N   0  0  0  0  0  0  0  0  0  0  0  0
   73.7050   42.5780   -6.6780 C   0  0  0  0  0  0  0  0  0  0  0  0
   74.5370   43.0340   -7.8690 C   0  0  0  0  0  0  0  0  0  0  0  0
   74.1680   42.7920   -4.3590 C   0  0  0  0  0  0  0  0  0  0  0  0
   73.1870   42.0340   -3.6900 C   0  0  0  0  0  0  0  0  0  0  0  0
   73.4840   41.3080   -2.5280 C   0  0  0  0  0  0  0  0  0  0  0  0
   72.4470   40.5320   -1.8120 C   0  0  0  0  0  0  0  0  0  0  0  0
   72.9620   39.4160   -1.1630 O   0  0  0  0  0  0  0  0  0  0  0  0
   72.1090   38.6060   -0.4580 C   0  0  0  0  0  0  0  0  0  0  0  0
   72.6700   37.5050    0.1900 C   0  0  0  0  0  0  0  0  0  0  0  0
   71.8560   36.6400    0.9240 C   0  0  0  0  0  0  0  0  0  0  0  0
   70.4810   36.8740    1.0080 C   0  0  0  0  0  0  0  0  0  0  0  0
   69.9250   37.9730    0.3590 C   0  0  0  0  0  0  0  0  0  0  0  0
   68.5730   38.1430    0.4830 O   0  0  0  0  0  0  0  0  0  0  0  0
   70.7400   38.8400   -0.3740 C   0  0  0  0  0  0  0  0  0  0  0  0
   70.1950   40.0060   -1.0690 C   0  0  0  0  0  0  0  0  0  0  0  0
   68.9950   40.2750   -1.0480 O   0  0  0  0  0  0  0  0  0  0  0  0
   71.1440   40.8660   -1.8120 C   0  0  0  0  0  0  0  0  0  0  0  0
   70.6150   41.9580   -2.4760 O   0  0  0  0  0  0  0  0  0  0  0  0
   74.7880   41.3570   -2.0230 C   0  0  0  0  0  0  0  0  0  0  0  0
   75.7770   42.0950   -2.6770 C   0  0  0  0  0  0  0  0  0  0  0  0
   75.4820   42.8080   -3.8460 C   0  0  0  0  0  0  0  0  0  0  0  0
   76.5680   43.5890   -4.5350 C   0  0  0  0  0  0  0  0  0  0  0  0
   73.1504   45.4567   -3.4901 H   0  0  0  0  0  0  0  0  0  0  0  0
   74.2878   45.9333   -4.7962 H   0  0  0  0  0  0  0  0  0  0  0  0
   72.6055   46.5630   -4.7962 H   0  0  0  0  0  0  0  0  0  0  0  0
   71.9426   44.0146   -4.8832 H   0  0  0  0  0  0  0  0  0  0  0  0
   72.5026   44.8589   -6.3854 H   0  0  0  0  0  0  0  0  0  0  0  0
   74.0291   41.5725   -6.3716 H   0  0  0  0  0  0  0  0  0  0  0  0
   72.6439   42.5577   -6.9671 H   0  0  0  0  0  0  0  0  0  0  0  0
   75.4487   43.5337   -7.5096 H   0  0  0  0  0  0  0  0  0  0  0  0
   74.8134   42.1613   -8.4789 H   0  0  0  0  0  0  0  0  0  0  0  0
   73.9500   43.7365   -8.4789 H   0  0  0  0  0  0  0  0  0  0  0  0
   72.1623   42.0112   -4.0893 H   0  0  0  0  0  0  0  0  0  0  0  0
   73.7520   37.3187    0.1227 H   0  0  0  0  0  0  0  0  0  0  0  0
   72.2979   35.7730    1.4369 H   0  0  0  0  0  0  0  0  0  0  0  0
   69.8397   36.1918    1.5853 H   0  0  0  0  0  0  0  0  0  0  0  0
   68.2240   38.9860    0.7000 H   0  0  0  0  0  0  0  0  0  0  0  0
   71.1180   42.3950   -3.1350 H   0  0  0  0  0  0  0  0  0  0  0  0
   75.0365   40.8090   -1.1021 H   0  0  0  0  0  0  0  0  0  0  0  0
   76.7986   42.1166   -2.2697 H   0  0  0  0  0  0  0  0  0  0  0  0
   77.2182   44.0566   -3.7809 H   0  0  0  0  0  0  0  0  0  0  0  0
   77.1643   42.9115   -5.1639 H   0  0  0  0  0  0  0  0  0  0  0  0
   76.1155   44.3699   -5.1639 H   0  0  0  0  0  0  0  0  0  0  0  0
  1  2  1  0
  2  3  1  0
  3  4  1  0
  4  5  1  0
  3  6  1  0
  6  7  2  0
  7  8  1  0
  8  9  1  0
  9 10  1  0
 10 11  1  0
 11 12  2  0
 12 13  1  0
 13 14  2  0
 14 15  1  0
 15 16  1  0
 15 17  2  0
 17 18  1  0
 18 19  2  0
 18 20  1  0
 20 21  1  0
  8 22  2  0
 22 23  1  0
 23 24  2  0
 24 25  1  0
 24  6  1  0
 20  9  2  0
 17 11  1  0
  1 26  1  0
  1 27  1  0
  1 28  1  0
  2 29  1  0
  2 30  1  0
  4 31  1  0
  4 32  1  0
  5 33  1  0
  5 34  1  0
  5 35  1  0
  7 36  1  0
 12 37  1  0
 13 38  1  0
 14 39  1  0
 16 40  1  0
 21 41  1  0
 22 42  1  0
 23 43  1  0
 25 44  1  0
 25 45  1  0
 25 46  1  0
M  END
>  <meeko>  (1) 
{"is_sidechain": [false], "free_energy": -7.381, "intermolecular_energy": -9.538, "internal_energy": -0.503}

$$$$
cand_054_out
     RDKit          3D

 46 48  0  0  0  0  0  0  0  0999 V2000
   74.7900   43.5630   -8.2270 C   0  0  0  0  0  0  0  0  0  0  0  0
   74.9530   42.6870   -6.9920 C   0  0  0  0  0  0  0  0  0  0  0  0
   75.3310   43.4860   -5.8080 N   0  0  0  0  0  0  0  0  0  0  0  0
   76.6120   43.0980   -5.1850 C   0  0  0  0  0  0  0  0  0  0  0  0
   77.2160   41.9100   -5.9220 C   0  0  0  0  0  0  0  0  0  0  0  0
   74.3100   43.5540   -4.8240 C   0  0  0  0  0  0  0  0  0  0  0  0
   73.9340   42.4310   -4.0620 C   0  0  0  0  0  0  0  0  0  0  0  0
   72.9380   42.5100   -3.0760 C   0  0  0  0  0  0  0  0  0  0  0  0
   72.5250   41.3250   -2.2950 C   0  0  0  0  0  0  0  0  0  0  0  0
   71.1630   41.3110   -2.0160 O   0  0  0  0  0  0  0  0  0  0  0  0
   70.6430   40.2660   -1.2960 C   0  0  0  0  0  0  0  0  0  0  0  0
   69.2700   40.2860   -1.0530 C   0  0  0  0  0  0  0  0  0  0  0  0
   68.6770   39.2510   -0.3250 C   0  0  0  0  0  0  0  0  0  0  0  0
   69.4590   38.2000    0.1620 C   0  0  0  0  0  0  0  0  0  0  0  0
   70.8290   38.1850   -0.0830 C   0  0  0  0  0  0  0  0  0  0  0  0
   71.5340   37.1260    0.4220 O   0  0  0  0  0  0  0  0  0  0  0  0
   71.4210   39.2190   -0.8130 C   0  0  0  0  0  0  0  0  0  0  0  0
   72.8580   39.2400   -1.0920 C   0  0  0  0  0  0  0  0  0  0  0  0
   73.6120   38.3550   -0.6930 O   0  0  0  0  0  0  0  0  0  0  0  0
   73.3850   40.3760   -1.8810 C   0  0  0  0  0  0  0  0  0  0  0  0
   74.7460   40.3920   -2.1280 O   0  0  0  0  0  0  0  0  0  0  0  0
   72.3030   43.7390   -2.8640 C   0  0  0  0  0  0  0  0  0  0  0  0
   72.6700   44.8670   -3.6030 C   0  0  0  0  0  0  0  0  0  0  0  0
   73.6740   44.7880   -4.5770 C   0  0  0  0  0  0  0  0  0  0  0  0
   74.0550   46.0200   -5.3530 C   0  0  0  0  0  0  0  0  0  0  0  0
   74.5969   44.6008   -7.9175 H   0  0  0  0  0  0  0  0  0  0  0  0
   75.7107   43.5248   -8.8278 H   0  0  0  0  0  0  0  0  0  0  0  0
   73.9447   43.1962   -8.8278 H   0  0  0  0  0  0  0  0  0  0  0  0
   74.0009   42.1750   -6.7887 H   0  0  0  0  0  0  0  0  0  0  0  0
   75.7545   41.9596   -7.1879 H   0  0  0  0  0  0  0  0  0  0  0  0
   77.3100   43.9469   -5.2303 H   0  0  0  0  0  0  0  0  0  0  0  0
   76.4311   42.8164   -4.1372 H   0  0  0  0  0  0  0  0  0  0  0  0
   77.5889   41.1766   -5.1919 H   0  0  0  0  0  0  0  0  0  0  0  0
   76.4471   41.4406   -6.5532 H   0  0  0  0  0  0  0  0  0  0  0  0
   78.0483   42.2547   -6.5532 H   0  0  0  0  0  0  0  0  0  0  0  0
   74.4332   41.4679   -4.2440 H   0  0  0  0  0  0  0  0  0  0  0  0
   68.6550   41.1148   -1.4336 H   0  0  0  0  0  0  0  0  0  0  0  0
   67.5936   39.2635   -0.1351 H   0  0  0  0  0  0  0  0  0  0  0  0
   68.9929   37.3867    0.7375 H   0  0  0  0  0  0  0  0  0  0  0  0
   72.4510   37.2140    0.5990 H   0  0  0  0  0  0  0  0  0  0  0  0
   75.2480   41.1600   -1.9380 H   0  0  0  0  0  0  0  0  0  0  0  0
   71.5074   43.8179   -2.1085 H   0  0  0  0  0  0  0  0  0  0  0  0
   72.1654   45.8268   -3.4180 H   0  0  0  0  0  0  0  0  0  0  0  0
   74.3058   46.8310   -4.6534 H   0  0  0  0  0  0  0  0  0  0  0  0
   74.9269   45.7994   -5.9864 H   0  0  0  0  0  0  0  0  0  0  0  0
   73.2108   46.3301   -5.9864 H   0  0  0  0  0  0  0  0  0  0  0  0
  1  2  1  0
  2  3  1  0
  3  4  1  0
  4  5  1  0
  3  6  1  0
  6  7  2  0
  7  8  1  0
  8  9  1  0
  9 10  1  0
 10 11  1  0
 11 12  2  0
 12 13  1  0
 13 14  2  0
 14 15  1  0
 15 16  1  0
 15 17  2  0
 17 18  1  0
 18 19  2  0
 18 20  1  0
 20 21  1  0
  8 22  2  0
 22 23  1  0
 23 24  2  0
 24 25  1  0
 24  6  1  0
 20  9  2  0
 17 11  1  0
  1 26  1  0
  1 27  1  0
  1 28  1  0
  2 29  1  0
  2 30  1  0
  4 31  1  0
  4 32  1  0
  5 33  1  0
  5 34  1  0
  5 35  1  0
  7 36  1  0
 12 37  1  0
 13 38  1  0
 14 39  1  0
 16 40  1  0
 21 41  1  0
 22 42  1  0
 23 43  1  0
 25 44  1  0
 25 45  1  0
 25 46  1  0
M  END
>  <meeko>  (2) 
{"is_sidechain": [false], "free_energy": -7.355, "intermolecular_energy": -9.493, "internal_energy": -0.515}

$$$$
cand_054_out
     RDKit          3D

 46 48  0  0  0  0  0  0  0  0999 V2000
   72.6830   45.6580   -4.4440 C   0  0  0  0  0  0  0  0  0  0  0  0
   72.3780   44.4620   -5.3360 C   0  0  0  0  0  0  0  0  0  0  0  0
   73.5660   43.6030   -5.5150 N   0  0  0  0  0  0  0  0  0  0  0  0
   73.4800   42.6580   -6.6460 C   0  0  0  0  0  0  0  0  0  0  0  0
   74.5060   43.0190   -7.7110 C   0  0  0  0  0  0  0  0  0  0  0  0
   73.9490   42.9150   -4.3330 C   0  0  0  0  0  0  0  0  0  0  0  0
   73.0750   42.0340   -3.6670 C   0  0  0  0  0  0  0  0  0  0  0  0
   73.4670   41.3420   -2.5120 C   0  0  0  0  0  0  0  0  0  0  0  0
   72.5400   40.4360   -1.7980 C   0  0  0  0  0  0  0  0  0  0  0  0
   71.2150   40.8500   -1.8760 O   0  0  0  0  0  0  0  0  0  0  0  0
   70.2480   40.1010   -1.2570 C   0  0  0  0  0  0  0  0  0  0  0  0
   68.9310   40.5450   -1.3730 C   0  0  0  0  0  0  0  0  0  0  0  0
   67.8980   39.8280   -0.7650 C   0  0  0  0  0  0  0  0  0  0  0  0
   68.1830   38.6680   -0.0400 C   0  0  0  0  0  0  0  0  0  0  0  0
   69.4990   38.2280    0.0740 C   0  0  0  0  0  0  0  0  0  0  0  0
   69.7070   37.0850    0.7970 O   0  0  0  0  0  0  0  0  0  0  0  0
   70.5320   38.9450   -0.5360 C   0  0  0  0  0  0  0  0  0  0  0  0
   71.9280   38.5160   -0.4410 C   0  0  0  0  0  0  0  0  0  0  0  0
   72.2590   37.5100    0.1840 O   0  0  0  0  0  0  0  0  0  0  0  0
   72.9460   39.3420   -1.1290 C   0  0  0  0  0  0  0  0  0  0  0  0
   74.2640   38.9340   -1.0210 O   0  0  0  0  0  0  0  0  0  0  0  0
   74.7570   41.5510   -2.0120 C   0  0  0  0  0  0  0  0  0  0  0  0
   75.6420   42.4140   -2.6640 C   0  0  0  0  0  0  0  0  0  0  0  0
   75.2530   43.0930   -3.8250 C   0  0  0  0  0  0  0  0  0  0  0  0
   76.2280   44.0100   -4.5120 C   0  0  0  0  0  0  0  0  0  0  0  0
   72.6063   45.3573   -3.3887 H   0  0  0  0  0  0  0  0  0  0  0  0
   73.7018   46.0183   -4.6495 H   0  0  0  0  0  0  0  0  0  0  0  0
   71.9612   46.4622   -4.6495 H   0  0  0  0  0  0  0  0  0  0  0  0
   71.5741   43.8687   -4.8758 H   0  0  0  0  0  0  0  0  0  0  0  0
   72.0717   44.8374   -6.3236 H   0  0  0  0  0  0  0  0  0  0  0  0
   73.6761   41.6382   -6.2833 H   0  0  0  0  0  0  0  0  0  0  0  0
   72.4726   42.7131   -7.0844 H   0  0  0  0  0  0  0  0  0  0  0  0
   75.4376   43.3468   -7.2265 H   0  0  0  0  0  0  0  0  0  0  0  0
   74.7090   42.1383   -8.3380 H   0  0  0  0  0  0  0  0  0  0  0  0
   74.1128   43.8328   -8.3380 H   0  0  0  0  0  0  0  0  0  0  0  0
   72.0595   41.8850   -4.0627 H   0  0  0  0  0  0  0  0  0  0  0  0
   68.7061   41.4587   -1.9426 H   0  0  0  0  0  0  0  0  0  0  0  0
   66.8589   40.1769   -0.8570 H   0  0  0  0  0  0  0  0  0  0  0  0
   67.3696   38.1038    0.4395 H   0  0  0  0  0  0  0  0  0  0  0  0
   70.5670   36.7130    0.8500 H   0  0  0  0  0  0  0  0  0  0  0  0
   74.4770   38.1630   -0.5340 H   0  0  0  0  0  0  0  0  0  0  0  0
   75.0776   41.0311   -1.0971 H   0  0  0  0  0  0  0  0  0  0  0  0
   76.6548   42.5614   -2.2608 H   0  0  0  0  0  0  0  0  0  0  0  0
   76.8106   44.5579   -3.7568 H   0  0  0  0  0  0  0  0  0  0  0  0
   76.9085   43.4170   -5.1408 H   0  0  0  0  0  0  0  0  0  0  0  0
   75.6778   44.7255   -5.1408 H   0  0  0  0  0  0  0  0  0  0  0  0
  1  2  1  0
  2  3  1  0
  3  4  1  0
  4  5  1  0
  3  6  1  0
  6  7  2  0
  7  8  1  0
  8  9  1  0
  9 10  1  0
 10 11  1  0
 11 12  2  0
 12 13  1  0
 13 14  2  0
 14 15  1  0
 15 16  1  0
 15 17  2  0
 17 18  1  0
 18 19  2  0
 18 20  1  0
 20 21  1  0
  8 22  2  0
 22 23  1  0
 23 24  2  0
 24 25  1  0
 24  6  1  0
 20  9  2  0
 17 11  1  0
  1 26  1  0
  1 27  1  0
  1 28  1  0
  2 29  1  0
  2 30  1  0
  4 31  1  0
  4 32  1  0
  5 33  1  0
  5 34  1  0
  5 35  1  0
  7 36  1  0
 12 37  1  0
 13 38  1  0
 14 39  1  0
 16 40  1  0
 21 41  1  0
 22 42  1  0
 23 43  1  0
 25 44  1  0
 25 45  1  0
 25 46  1  0
M  END
>  <meeko>  (3) 
{"is_sidechain": [false], "free_energy": -7.317, "intermolecular_energy": -9.442, "internal_energy": -0.517}

$$$$
cand_054_out
     RDKit          3D

 46 48  0  0  0  0  0  0  0  0999 V2000
   76.8890   42.0430   -5.8330 C   0  0  0  0  0  0  0  0  0  0  0  0
   76.3590   42.0180   -4.4060 C   0  0  0  0  0  0  0  0  0  0  0  0
   75.4010   43.1170   -4.1660 N   0  0  0  0  0  0  0  0  0  0  0  0
   75.6060   43.8490   -2.9000 C   0  0  0  0  0  0  0  0  0  0  0  0
   76.3630   42.9780   -1.9070 C   0  0  0  0  0  0  0  0  0  0  0  0
   74.0430   42.7170   -4.2840 C   0  0  0  0  0  0  0  0  0  0  0  0
   73.4270   41.8810   -3.3330 C   0  0  0  0  0  0  0  0  0  0  0  0
   72.0800   41.5070   -3.4440 C   0  0  0  0  0  0  0  0  0  0  0  0
   71.4400   40.6080   -2.4600 C   0  0  0  0  0  0  0  0  0  0  0  0
   72.2980   39.6150   -1.9990 O   0  0  0  0  0  0  0  0  0  0  0  0
   71.8330   38.7110   -1.0800 C   0  0  0  0  0  0  0  0  0  0  0  0
   72.7310   37.7410   -0.6350 C   0  0  0  0  0  0  0  0  0  0  0  0
   72.3210   36.7890    0.3010 C   0  0  0  0  0  0  0  0  0  0  0  0
   71.0120   36.8050    0.7890 C   0  0  0  0  0  0  0  0  0  0  0  0
   70.1180   37.7740    0.3420 C   0  0  0  0  0  0  0  0  0  0  0  0
   68.8520   37.7320    0.8610 O   0  0  0  0  0  0  0  0  0  0  0  0
   70.5290   38.7270   -0.5930 C   0  0  0  0  0  0  0  0  0  0  0  0
   69.6210   39.7620   -1.0890 C   0  0  0  0  0  0  0  0  0  0  0  0
   68.4530   39.8390   -0.7120 O   0  0  0  0  0  0  0  0  0  0  0  0
   70.1570   40.7300   -2.0720 C   0  0  0  0  0  0  0  0  0  0  0  0
   69.2860   41.6960   -2.5430 O   0  0  0  0  0  0  0  0  0  0  0  0
   71.3450   41.9740   -4.5400 C   0  0  0  0  0  0  0  0  0  0  0  0
   71.9360   42.8130   -5.4880 C   0  0  0  0  0  0  0  0  0  0  0  0
   73.2780   43.1960   -5.3670 C   0  0  0  0  0  0  0  0  0  0  0  0
   73.8870   44.1060   -6.3990 C   0  0  0  0  0  0  0  0  0  0  0  0
   77.9876   42.0948   -5.8152 H   0  0  0  0  0  0  0  0  0  0  0  0
   76.5735   41.1290   -6.3574 H   0  0  0  0  0  0  0  0  0  0  0  0
   76.4888   42.9233   -6.3574 H   0  0  0  0  0  0  0  0  0  0  0  0
   75.8530   41.0574   -4.2292 H   0  0  0  0  0  0  0  0  0  0  0  0
   77.2090   42.1444   -3.7193 H   0  0  0  0  0  0  0  0  0  0  0  0
   76.1858   44.7626   -3.0981 H   0  0  0  0  0  0  0  0  0  0  0  0
   74.6264   44.1115   -2.4740 H   0  0  0  0  0  0  0  0  0  0  0  0
   76.1016   43.2788   -0.8817 H   0  0  0  0  0  0  0  0  0  0  0  0
   76.0893   41.9238   -2.0609 H   0  0  0  0  0  0  0  0  0  0  0  0
   77.4451   43.1021   -2.0609 H   0  0  0  0  0  0  0  0  0  0  0  0
   74.0174   41.5119   -2.4814 H   0  0  0  0  0  0  0  0  0  0  0  0
   73.7610   37.7258   -1.0208 H   0  0  0  0  0  0  0  0  0  0  0  0
   73.0297   36.0256    0.6545 H   0  0  0  0  0  0  0  0  0  0  0  0
   70.6886   36.0538    1.5246 H   0  0  0  0  0  0  0  0  0  0  0  0
   68.6940   37.3010    1.6780 H   0  0  0  0  0  0  0  0  0  0  0  0
   69.1950   42.5080   -2.0860 H   0  0  0  0  0  0  0  0  0  0  0  0
   70.2921   41.6776   -4.6560 H   0  0  0  0  0  0  0  0  0  0  0  0
   71.3410   43.1768   -6.3387 H   0  0  0  0  0  0  0  0  0  0  0  0
   74.4310   44.9189   -5.8958 H   0  0  0  0  0  0  0  0  0  0  0  0
   74.5840   43.5327   -7.0278 H   0  0  0  0  0  0  0  0  0  0  0  0
   73.0912   44.5317   -7.0278 H   0  0  0  0  0  0  0  0  0  0  0  0
  1  2  1  0
  2  3  1  0
  3  4  1  0
  4  5  1  0
  3  6  1  0
  6  7  2  0
  7  8  1  0
  8  9  1  0
  9 10  1  0
 10 11  1  0
 11 12  2  0
 12 13  1  0
 13 14  2  0
 14 15  1  0
 15 16  1  0
 15 17  2  0
 17 18  1  0
 18 19  2  0
 18 20  1  0
 20 21  1  0
  8 22  2  0
 22 23  1  0
 23 24  2  0
 24 25  1  0
 24  6  1  0
 20  9  2  0
 17 11  1  0
  1 26  1  0
  1 27  1  0
  1 28  1  0
  2 29  1  0
  2 30  1  0
  4 31  1  0
  4 32  1  0
  5 33  1  0
  5 34  1  0
  5 35  1  0
  7 36  1  0
 12 37  1  0
 13 38  1  0
 14 39  1  0
 16 40  1  0
 21 41  1  0
 22 42  1  0
 23 43  1  0
 25 44  1  0
 25 45  1  0
 25 46  1  0
M  END
>  <meeko>  (4) 
{"is_sidechain": [false], "free_energy": -7.305, "intermolecular_energy": -9.556, "internal_energy": -0.388}

$$$$
cand_054_out
     RDKit          3D

 46 48  0  0  0  0  0  0  0  0999 V2000
   75.7340   47.1270   -2.8650 C   0  0  0  0  0  0  0  0  0  0  0  0
   74.5620   46.2250   -3.2280 C   0  0  0  0  0  0  0  0  0  0  0  0
   75.0040   45.0490   -4.0040 N   0  0  0  0  0  0  0  0  0  0  0  0
   74.5230   45.0140   -5.4000 C   0  0  0  0  0  0  0  0  0  0  0  0
   75.5890   44.4150   -6.3070 C   0  0  0  0  0  0  0  0  0  0  0  0
   74.7270   43.8130   -3.3630 C   0  0  0  0  0  0  0  0  0  0  0  0
   73.4160   43.3130   -3.2410 C   0  0  0  0  0  0  0  0  0  0  0  0
   73.1520   42.0810   -2.6240 C   0  0  0  0  0  0  0  0  0  0  0  0
   71.7730   41.5690   -2.4740 C   0  0  0  0  0  0  0  0  0  0  0  0
   71.5980   40.8230   -1.3140 O   0  0  0  0  0  0  0  0  0  0  0  0
   70.3650   40.2870   -1.0490 C   0  0  0  0  0  0  0  0  0  0  0  0
   70.2310   39.5580    0.1330 C   0  0  0  0  0  0  0  0  0  0  0  0
   69.0000   38.9840    0.4620 C   0  0  0  0  0  0  0  0  0  0  0  0
   67.9060   39.1380   -0.3920 C   0  0  0  0  0  0  0  0  0  0  0  0
   68.0430   39.8650   -1.5710 C   0  0  0  0  0  0  0  0  0  0  0  0
   66.9310   39.9760   -2.3610 O   0  0  0  0  0  0  0  0  0  0  0  0
   69.2740   40.4400   -1.8990 C   0  0  0  0  0  0  0  0  0  0  0  0
   69.4600   41.2120   -3.1280 C   0  0  0  0  0  0  0  0  0  0  0  0
   68.5470   41.3860   -3.9330 O   0  0  0  0  0  0  0  0  0  0  0  0
   70.8010   41.7870   -3.3790 C   0  0  0  0  0  0  0  0  0  0  0  0
   70.9690   42.5040   -4.5510 O   0  0  0  0  0  0  0  0  0  0  0  0
   74.2270   41.3470   -2.1100 C   0  0  0  0  0  0  0  0  0  0  0  0
   75.5350   41.8210   -2.2300 C   0  0  0  0  0  0  0  0  0  0  0  0
   75.7970   43.0450   -2.8580 C   0  0  0  0  0  0  0  0  0  0  0  0
   77.2170   43.5290   -2.9800 C   0  0  0  0  0  0  0  0  0  0  0  0
   75.8203   47.1934   -1.7704 H   0  0  0  0  0  0  0  0  0  0  0  0
   76.6619   46.7078   -3.2812 H   0  0  0  0  0  0  0  0  0  0  0  0
   75.5664   48.1313   -3.2812 H   0  0  0  0  0  0  0  0  0  0  0  0
   74.0760   45.8808   -2.3031 H   0  0  0  0  0  0  0  0  0  0  0  0
   73.8605   46.8032   -3.8473 H   0  0  0  0  0  0  0  0  0  0  0  0
   73.6118   44.4003   -5.4553 H   0  0  0  0  0  0  0  0  0  0  0  0
   74.3046   46.0401   -5.7309 H   0  0  0  0  0  0  0  0  0  0  0  0
   76.3844   43.9681   -5.6925 H   0  0  0  0  0  0  0  0  0  0  0  0
   75.1364   43.6391   -6.9419 H   0  0  0  0  0  0  0  0  0  0  0  0
   76.0164   45.2051   -6.9419 H   0  0  0  0  0  0  0  0  0  0  0  0
   72.5778   43.9034   -3.6396 H   0  0  0  0  0  0  0  0  0  0  0  0
   71.0931   39.4352    0.8051 H   0  0  0  0  0  0  0  0  0  0  0  0
   68.8928   38.4104    1.3945 H   0  0  0  0  0  0  0  0  0  0  0  0
   66.9373   38.6854   -0.1334 H   0  0  0  0  0  0  0  0  0  0  0  0
   67.0200   40.2000   -3.2670 H   0  0  0  0  0  0  0  0  0  0  0  0
   71.7460   42.3920   -5.0610 H   0  0  0  0  0  0  0  0  0  0  0  0
   74.0397   40.3871   -1.6064 H   0  0  0  0  0  0  0  0  0  0  0  0
   76.3683   41.2267   -1.8270 H   0  0  0  0  0  0  0  0  0  0  0  0
   77.6425   43.6740   -1.9760 H   0  0  0  0  0  0  0  0  0  0  0  0
   77.8129   42.7832   -3.5266 H   0  0  0  0  0  0  0  0  0  0  0  0
   77.2334   44.4835   -3.5266 H   0  0  0  0  0  0  0  0  0  0  0  0
  1  2  1  0
  2  3  1  0
  3  4  1  0
  4  5  1  0
  3  6  1  0
  6  7  2  0
  7  8  1  0
  8  9  1  0
  9 10  1  0
 10 11  1  0
 11 12  2  0
 12 13  1  0
 13 14  2  0
 14 15  1  0
 15 16  1  0
 15 17  2  0
 17 18  1  0
 18 19  2  0
 18 20  1  0
 20 21  1  0
  8 22  2  0
 22 23  1  0
 23 24  2  0
 24 25  1  0
 24  6  1  0
 20  9  2  0
 17 11  1  0
  1 26  1  0
  1 27  1  0
  1 28  1  0
  2 29  1  0
  2 30  1  0
  4 31  1  0
  4 32  1  0
  5 33  1  0
  5 34  1  0
  5 35  1  0
  7 36  1  0
 12 37  1  0
 13 38  1  0
 14 39  1  0
 16 40  1  0
 21 41  1  0
 22 42  1  0
 23 43  1  0
 25 44  1  0
 25 45  1  0
 25 46  1  0
M  END
>  <meeko>  (5) 
{"is_sidechain": [false], "free_energy": -7.261, "intermolecular_energy": -9.321, "internal_energy": -0.565}

$$$$
cand_054_out
     RDKit          3D

 46 48  0  0  0  0  0  0  0  0999 V2000
   76.8350   44.6330   -3.8980 C   0  0  0  0  0  0  0  0  0  0  0  0
   75.6700   45.0840   -3.0290 C   0  0  0  0  0  0  0  0  0  0  0  0
   74.4440   45.2820   -3.8280 N   0  0  0  0  0  0  0  0  0  0  0  0
   73.4620   46.2110   -3.2320 C   0  0  0  0  0  0  0  0  0  0  0  0
   74.1420   47.5180   -2.8480 C   0  0  0  0  0  0  0  0  0  0  0  0
   73.8060   44.0670   -4.1930 C   0  0  0  0  0  0  0  0  0  0  0  0
   73.3700   43.1350   -3.2320 C   0  0  0  0  0  0  0  0  0  0  0  0
   72.7230   41.9460   -3.5990 C   0  0  0  0  0  0  0  0  0  0  0  0
   72.2890   40.9560   -2.5900 C   0  0  0  0  0  0  0  0  0  0  0  0
   70.9150   40.9730   -2.3730 O   0  0  0  0  0  0  0  0  0  0  0  0
   70.3770   40.1030   -1.4610 C   0  0  0  0  0  0  0  0  0  0  0  0
   68.9930   40.1450   -1.2860 C   0  0  0  0  0  0  0  0  0  0  0  0
   68.3810   39.2850   -0.3710 C   0  0  0  0  0  0  0  0  0  0  0  0
   69.1520   38.3870    0.3700 C   0  0  0  0  0  0  0  0  0  0  0  0
   70.5330   38.3490    0.1930 C   0  0  0  0  0  0  0  0  0  0  0  0
   71.2270   37.4450    0.9510 O   0  0  0  0  0  0  0  0  0  0  0  0
   71.1450   39.2070   -0.7240 C   0  0  0  0  0  0  0  0  0  0  0  0
   72.5920   39.1990   -0.9400 C   0  0  0  0  0  0  0  0  0  0  0  0
   73.3390   38.4420   -0.3210 O   0  0  0  0  0  0  0  0  0  0  0  0
   73.1410   40.1430   -1.9390 C   0  0  0  0  0  0  0  0  0  0  0  0
   74.5120   40.1350   -2.1250 O   0  0  0  0  0  0  0  0  0  0  0  0
   72.5220   41.6870   -4.9600 C   0  0  0  0  0  0  0  0  0  0  0  0
   72.9370   42.6050   -5.9280 C   0  0  0  0  0  0  0  0  0  0  0  0
   73.5710   43.7970   -5.5570 C   0  0  0  0  0  0  0  0  0  0  0  0
   74.0020   44.7710   -6.6210 C   0  0  0  0  0  0  0  0  0  0  0  0
   77.6680   44.3105   -3.2560 H   0  0  0  0  0  0  0  0  0  0  0  0
   76.5153   43.7937   -4.5331 H   0  0  0  0  0  0  0  0  0  0  0  0
   77.1638   45.4688   -4.5331 H   0  0  0  0  0  0  0  0  0  0  0  0
   75.4778   44.3181   -2.2632 H   0  0  0  0  0  0  0  0  0  0  0  0
   75.9377   46.0442   -2.5638 H   0  0  0  0  0  0  0  0  0  0  0  0
   72.6659   46.4164   -3.9628 H   0  0  0  0  0  0  0  0  0  0  0  0
   73.0332   45.7504   -2.3298 H   0  0  0  0  0  0  0  0  0  0  0  0
   74.1850   47.6007   -1.7520 H   0  0  0  0  0  0  0  0  0  0  0  0
   75.1629   47.5343   -3.2573 H   0  0  0  0  0  0  0  0  0  0  0  0
   73.5694   48.3633   -3.2573 H   0  0  0  0  0  0  0  0  0  0  0  0
   73.5412   43.3448   -2.1659 H   0  0  0  0  0  0  0  0  0  0  0  0
   68.3853   40.8539   -1.8675 H   0  0  0  0  0  0  0  0  0  0  0  0
   67.2900   39.3152   -0.2340 H   0  0  0  0  0  0  0  0  0  0  0  0
   68.6699   37.7113    1.0917 H   0  0  0  0  0  0  0  0  0  0  0  0
   70.7660   36.8140    1.4690 H   0  0  0  0  0  0  0  0  0  0  0  0
   74.9390   40.8830   -2.4930 H   0  0  0  0  0  0  0  0  0  0  0  0
   72.0327   40.7519   -5.2702 H   0  0  0  0  0  0  0  0  0  0  0  0
   72.7639   42.3891   -6.9926 H   0  0  0  0  0  0  0  0  0  0  0  0
   74.4036   45.6785   -6.1464 H   0  0  0  0  0  0  0  0  0  0  0  0
   74.7800   44.3096   -7.2470 H   0  0  0  0  0  0  0  0  0  0  0  0
   73.1373   45.0365   -7.2470 H   0  0  0  0  0  0  0  0  0  0  0  0
  1  2  1  0
  2  3  1  0
  3  4  1  0
  4  5  1  0
  3  6  1  0
  6  7  2  0
  7  8  1  0
  8  9  1  0
  9 10  1  0
 10 11  1  0
 11 12  2  0
 12 13  1  0
 13 14  2  0
 14 15  1  0
 15 16  1  0
 15 17  2  0
 17 18  1  0
 18 19  2  0
 18 20  1  0
 20 21  1  0
  8 22  2  0
 22 23  1  0
 23 24  2  0
 24 25  1  0
 24  6  1  0
 20  9  2  0
 17 11  1  0
  1 26  1  0
  1 27  1  0
  1 28  1  0
  2 29  1  0
  2 30  1  0
  4 31  1  0
  4 32  1  0
  5 33  1  0
  5 34  1  0
  5 35  1  0
  7 36  1  0
 12 37  1  0
 13 38  1  0
 14 39  1  0
 16 40  1  0
 21 41  1  0
 22 42  1  0
 23 43  1  0
 25 44  1  0
 25 45  1  0
 25 46  1  0
M  END
>  <meeko>  (6) 
{"is_sidechain": [false], "free_energy": -7.255, "intermolecular_energy": -8.975, "internal_energy": -0.904}

$$$$
cand_054_out
     RDKit          3D

 46 48  0  0  0  0  0  0  0  0999 V2000
   67.7350   40.0010   -1.3990 C   0  0  0  0  0  0  0  0  0  0  0  0
   68.8320   40.8450   -2.0330 C   0  0  0  0  0  0  0  0  0  0  0  0
   69.8250   41.2830   -1.0300 N   0  0  0  0  0  0  0  0  0  0  0  0
   69.8800   42.7430   -0.8120 C   0  0  0  0  0  0  0  0  0  0  0  0
   68.9430   43.4530   -1.7800 C   0  0  0  0  0  0  0  0  0  0  0  0
   71.1300   40.7770   -1.2700 C   0  0  0  0  0  0  0  0  0  0  0  0
   71.9880   41.3520   -2.2270 C   0  0  0  0  0  0  0  0  0  0  0  0
   73.2840   40.8590   -2.4440 C   0  0  0  0  0  0  0  0  0  0  0  0
   74.1760   41.4460   -3.4670 C   0  0  0  0  0  0  0  0  0  0  0  0
   73.5080   41.7680   -4.6440 O   0  0  0  0  0  0  0  0  0  0  0  0
   74.2170   42.3220   -5.6780 C   0  0  0  0  0  0  0  0  0  0  0  0
   73.5050   42.6410   -6.8340 C   0  0  0  0  0  0  0  0  0  0  0  0
   74.1670   43.2080   -7.9260 C   0  0  0  0  0  0  0  0  0  0  0  0
   75.5420   43.4510   -7.8620 C   0  0  0  0  0  0  0  0  0  0  0  0
   76.2490   43.1300   -6.7070 C   0  0  0  0  0  0  0  0  0  0  0  0
   77.5910   43.3950   -6.7110 O   0  0  0  0  0  0  0  0  0  0  0  0
   75.5850   42.5650   -5.6140 C   0  0  0  0  0  0  0  0  0  0  0  0
   76.2920   42.2140   -4.3820 C   0  0  0  0  0  0  0  0  0  0  0  0
   77.5020   42.3910   -4.2510 O   0  0  0  0  0  0  0  0  0  0  0  0
   75.4960   41.6270   -3.2790 C   0  0  0  0  0  0  0  0  0  0  0  0
   76.1760   41.2870   -2.1240 O   0  0  0  0  0  0  0  0  0  0  0  0
   73.7160   39.7610   -1.6920 C   0  0  0  0  0  0  0  0  0  0  0  0
   72.8830   39.1830   -0.7310 C   0  0  0  0  0  0  0  0  0  0  0  0
   71.5940   39.6860   -0.5070 C   0  0  0  0  0  0  0  0  0  0  0  0
   70.7210   39.0490    0.5400 C   0  0  0  0  0  0  0  0  0  0  0  0
   67.8131   40.0611   -0.3034 H   0  0  0  0  0  0  0  0  0  0  0  0
   66.7520   40.3779   -1.7177 H   0  0  0  0  0  0  0  0  0  0  0  0
   67.8473   38.9542   -1.7177 H   0  0  0  0  0  0  0  0  0  0  0  0
   69.3417   40.2485   -2.8040 H   0  0  0  0  0  0  0  0  0  0  0  0
   68.3683   41.7398   -2.4738 H   0  0  0  0  0  0  0  0  0  0  0  0
   69.5751   42.9683    0.2206 H   0  0  0  0  0  0  0  0  0  0  0  0
   70.9082   43.0939   -0.9840 H   0  0  0  0  0  0  0  0  0  0  0  0
   68.1920   44.0221   -1.2125 H   0  0  0  0  0  0  0  0  0  0  0  0
   69.5225   44.1407   -2.4134 H   0  0  0  0  0  0  0  0  0  0  0  0
   68.4377   42.7090   -2.4134 H   0  0  0  0  0  0  0  0  0  0  0  0
   71.6338   42.2087   -2.8191 H   0  0  0  0  0  0  0  0  0  0  0  0
   72.4236   42.4465   -6.8860 H   0  0  0  0  0  0  0  0  0  0  0  0
   73.6056   43.4634   -8.8368 H   0  0  0  0  0  0  0  0  0  0  0  0
   76.0640   43.8949   -8.7225 H   0  0  0  0  0  0  0  0  0  0  0  0
   78.1100   43.2040   -5.9540 H   0  0  0  0  0  0  0  0  0  0  0  0
   75.7330   41.2960   -1.2990 H   0  0  0  0  0  0  0  0  0  0  0  0
   74.7220   39.3486   -1.8592 H   0  0  0  0  0  0  0  0  0  0  0  0
   73.2422   38.3247   -0.1443 H   0  0  0  0  0  0  0  0  0  0  0  0
   71.0912   39.3191    1.5400 H   0  0  0  0  0  0  0  0  0  0  0  0
   69.6874   39.4066    0.4227 H   0  0  0  0  0  0  0  0  0  0  0  0
   70.7462   37.9556    0.4227 H   0  0  0  0  0  0  0  0  0  0  0  0
  1  2  1  0
  2  3  1  0
  3  4  1  0
  4  5  1  0
  3  6  1  0
  6  7  2  0
  7  8  1  0
  8  9  1  0
  9 10  1  0
 10 11  1  0
 11 12  2  0
 12 13  1  0
 13 14  2  0
 14 15  1  0
 15 16  1  0
 15 17  2  0
 17 18  1  0
 18 19  2  0
 18 20  1  0
 20 21  1  0
  8 22  2  0
 22 23  1  0
 23 24  2  0
 24 25  1  0
 24  6  1  0
 20  9  2  0
 17 11  1  0
  1 26  1  0
  1 27  1  0
  1 28  1  0
  2 29  1  0
  2 30  1  0
  4 31  1  0
  4 32  1  0
  5 33  1  0
  5 34  1  0
  5 35  1  0
  7 36  1  0
 12 37  1  0
 13 38  1  0
 14 39  1  0
 16 40  1  0
 21 41  1  0
 22 42  1  0
 23 43  1  0
 25 44  1  0
 25 45  1  0
 25 46  1  0
M  END
>  <meeko>  (7) 
{"is_sidechain": [false], "free_energy": -7.134, "intermolecular_energy": -9.255, "internal_energy": -0.468}

$$$$
cand_054_out
     RDKit          3D

 46 48  0  0  0  0  0  0  0  0999 V2000
   68.0510   46.1400   -3.4940 C   0  0  0  0  0  0  0  0  0  0  0  0
   68.3390   44.7090   -3.9280 C   0  0  0  0  0  0  0  0  0  0  0  0
   69.5340   44.6370   -4.7940 N   0  0  0  0  0  0  0  0  0  0  0  0
   69.3580   43.8380   -6.0240 C   0  0  0  0  0  0  0  0  0  0  0  0
   68.4610   44.5790   -7.0060 C   0  0  0  0  0  0  0  0  0  0  0  0
   70.7040   44.2200   -4.1060 C   0  0  0  0  0  0  0  0  0  0  0  0
   70.7720   42.9880   -3.4290 C   0  0  0  0  0  0  0  0  0  0  0  0
   71.9390   42.5740   -2.7680 C   0  0  0  0  0  0  0  0  0  0  0  0
   72.0010   41.2900   -2.0360 C   0  0  0  0  0  0  0  0  0  0  0  0
   70.7820   40.9310   -1.4730 O   0  0  0  0  0  0  0  0  0  0  0  0
   70.6980   39.7600   -0.7640 C   0  0  0  0  0  0  0  0  0  0  0  0
   69.4520   39.4310   -0.2290 C   0  0  0  0  0  0  0  0  0  0  0  0
   69.2980   38.2520    0.5050 C   0  0  0  0  0  0  0  0  0  0  0  0
   70.3910   37.4050    0.7050 C   0  0  0  0  0  0  0  0  0  0  0  0
   71.6330   37.7370    0.1710 C   0  0  0  0  0  0  0  0  0  0  0  0
   72.6590   36.8630    0.4050 O   0  0  0  0  0  0  0  0  0  0  0  0
   71.7860   38.9160   -0.5650 C   0  0  0  0  0  0  0  0  0  0  0  0
   73.0730   39.3010   -1.1430 C   0  0  0  0  0  0  0  0  0  0  0  0
   74.0820   38.6110   -1.0050 O   0  0  0  0  0  0  0  0  0  0  0  0
   73.1280   40.5650   -1.9120 C   0  0  0  0  0  0  0  0  0  0  0  0
   74.3530   40.9250   -2.4440 O   0  0  0  0  0  0  0  0  0  0  0  0
   73.0510   43.4230   -2.7800 C   0  0  0  0  0  0  0  0  0  0  0  0
   73.0060   44.6450   -3.4550 C   0  0  0  0  0  0  0  0  0  0  0  0
   71.8440   45.0500   -4.1250 C   0  0  0  0  0  0  0  0  0  0  0  0
   71.8260   46.3680   -4.8500 C   0  0  0  0  0  0  0  0  0  0  0  0
   68.0400   46.1948   -2.3954 H   0  0  0  0  0  0  0  0  0  0  0  0
   68.8330   46.8066   -3.8865 H   0  0  0  0  0  0  0  0  0  0  0  0
   67.0720   46.4522   -3.8865 H   0  0  0  0  0  0  0  0  0  0  0  0
   68.5077   44.0911   -3.0337 H   0  0  0  0  0  0  0  0  0  0  0  0
   67.4748   44.3409   -4.5003 H   0  0  0  0  0  0  0  0  0  0  0  0
   70.3399   43.6640   -6.4883 H   0  0  0  0  0  0  0  0  0  0  0  0
   68.8906   42.8766   -5.7647 H   0  0  0  0  0  0  0  0  0  0  0  0
   67.7293   45.1835   -6.4500 H   0  0  0  0  0  0  0  0  0  0  0  0
   69.0748   45.2369   -7.6388 H   0  0  0  0  0  0  0  0  0  0  0  0
   67.9308   43.8520   -7.6388 H   0  0  0  0  0  0  0  0  0  0  0  0
   69.8883   42.3330   -3.4176 H   0  0  0  0  0  0  0  0  0  0  0  0
   68.5920   40.0989   -0.3849 H   0  0  0  0  0  0  0  0  0  0  0  0
   68.3158   37.9906    0.9256 H   0  0  0  0  0  0  0  0  0  0  0  0
   70.2703   36.4772    1.2835 H   0  0  0  0  0  0  0  0  0  0  0  0
   72.4760   35.9970    0.7160 H   0  0  0  0  0  0  0  0  0  0  0  0
   74.5410   40.7570   -3.3450 H   0  0  0  0  0  0  0  0  0  0  0  0
   73.9694   43.1253   -2.2529 H   0  0  0  0  0  0  0  0  0  0  0  0
   73.8923   45.2964   -3.4606 H   0  0  0  0  0  0  0  0  0  0  0  0
   71.8148   47.1890   -4.1180 H   0  0  0  0  0  0  0  0  0  0  0  0
   72.7231   46.4516   -5.4811 H   0  0  0  0  0  0  0  0  0  0  0  0
   70.9270   46.4271   -5.4811 H   0  0  0  0  0  0  0  0  0  0  0  0
  1  2  1  0
  2  3  1  0
  3  4  1  0
  4  5  1  0
  3  6  1  0
  6  7  2  0
  7  8  1  0
  8  9  1  0
  9 10  1  0
 10 11  1  0
 11 12  2  0
 12 13  1  0
 13 14  2  0
 14 15  1  0
 15 16  1  0
 15 17  2  0
 17 18  1  0
 18 19  2  0
 18 20  1  0
 20 21  1  0
  8 22  2  0
 22 23  1  0
 23 24  2  0
 24 25  1  0
 24  6  1  0
 20  9  2  0
 17 11  1  0
  1 26  1  0
  1 27  1  0
  1 28  1  0
  2 29  1  0
  2 30  1  0
  4 31  1  0
  4 32  1  0
  5 33  1  0
  5 34  1  0
  5 35  1  0
  7 36  1  0
 12 37  1  0
 13 38  1  0
 14 39  1  0
 16 40  1  0
 21 41  1  0
 22 42  1  0
 23 43  1  0
 25 44  1  0
 25 45  1  0
 25 46  1  0
M  END
>  <meeko>  (8) 
{"is_sidechain": [false], "free_energy": -7.109, "intermolecular_energy": -9.259, "internal_energy": -0.432}

$$$$
cand_054_out
     RDKit          3D

 46 48  0  0  0  0  0  0  0  0999 V2000
   66.1070   45.5720   -2.1530 C   0  0  0  0  0  0  0  0  0  0  0  0
   67.4180   45.7490   -2.9060 C   0  0  0  0  0  0  0  0  0  0  0  0
   67.4560   44.9230   -4.1300 N   0  0  0  0  0  0  0  0  0  0  0  0
   66.1800   44.2580   -4.4660 C   0  0  0  0  0  0  0  0  0  0  0  0
   65.7580   44.6210   -5.8830 C   0  0  0  0  0  0  0  0  0  0  0  0
   68.5150   43.9770   -4.1400 C   0  0  0  0  0  0  0  0  0  0  0  0
   68.5790   42.9190   -3.2130 C   0  0  0  0  0  0  0  0  0  0  0  0
   69.6170   41.9760   -3.2410 C   0  0  0  0  0  0  0  0  0  0  0  0
   69.6980   40.8810   -2.2510 C   0  0  0  0  0  0  0  0  0  0  0  0
   70.9790   40.3540   -2.1330 O   0  0  0  0  0  0  0  0  0  0  0  0
   71.1960   39.3300   -1.2480 C   0  0  0  0  0  0  0  0  0  0  0  0
   72.4990   38.8420   -1.1510 C   0  0  0  0  0  0  0  0  0  0  0  0
   72.7890   37.7980   -0.2690 C   0  0  0  0  0  0  0  0  0  0  0  0
   71.7740   37.2410    0.5140 C   0  0  0  0  0  0  0  0  0  0  0  0
   70.4740   37.7300    0.4140 C   0  0  0  0  0  0  0  0  0  0  0  0
   69.5300   37.1400    1.2090 O   0  0  0  0  0  0  0  0  0  0  0  0
   70.1860   38.7760   -0.4670 C   0  0  0  0  0  0  0  0  0  0  0  0
   68.8340   39.3190   -0.6020 C   0  0  0  0  0  0  0  0  0  0  0  0
   67.8870   38.8780    0.0470 O   0  0  0  0  0  0  0  0  0  0  0  0
   68.6350   40.4320   -1.5580 C   0  0  0  0  0  0  0  0  0  0  0  0
   67.3500   40.9280   -1.6870 O   0  0  0  0  0  0  0  0  0  0  0  0
   70.6150   42.1100   -4.2130 C   0  0  0  0  0  0  0  0  0  0  0  0
   70.5640   43.1470   -5.1480 C   0  0  0  0  0  0  0  0  0  0  0  0
   69.5190   44.0790   -5.1260 C   0  0  0  0  0  0  0  0  0  0  0  0
   69.4840   45.1810   -6.1490 C   0  0  0  0  0  0  0  0  0  0  0  0
   66.2996   45.5980   -1.0703 H   0  0  0  0  0  0  0  0  0  0  0  0
   65.4168   46.3851   -2.4223 H   0  0  0  0  0  0  0  0  0  0  0  0
   65.6572   44.6050   -2.4223 H   0  0  0  0  0  0  0  0  0  0  0  0
   67.5295   46.8071   -3.1854 H   0  0  0  0  0  0  0  0  0  0  0  0
   68.2394   45.4286   -2.2482 H   0  0  0  0  0  0  0  0  0  0  0  0
   66.3074   43.1679   -4.3923 H   0  0  0  0  0  0  0  0  0  0  0  0
   65.4035   44.5925   -3.7623 H   0  0  0  0  0  0  0  0  0  0  0  0
   64.9246   45.3379   -5.8451 H   0  0  0  0  0  0  0  0  0  0  0  0
   66.6080   45.0746   -6.4139 H   0  0  0  0  0  0  0  0  0  0  0  0
   65.4366   43.7128   -6.4139 H   0  0  0  0  0  0  0  0  0  0  0  0
   67.7946   42.8297   -2.4470 H   0  0  0  0  0  0  0  0  0  0  0  0
   73.2977   39.2788   -1.7685 H   0  0  0  0  0  0  0  0  0  0  0  0
   73.8169   37.4141   -0.1907 H   0  0  0  0  0  0  0  0  0  0  0  0
   72.0016   36.4182    1.2077 H   0  0  0  0  0  0  0  0  0  0  0  0
   68.7170   37.5770    1.3760 H   0  0  0  0  0  0  0  0  0  0  0  0
   66.6220   40.4300   -1.3730 H   0  0  0  0  0  0  0  0  0  0  0  0
   71.4477   41.3918   -4.2411 H   0  0  0  0  0  0  0  0  0  0  0  0
   71.3532   43.2323   -5.9096 H   0  0  0  0  0  0  0  0  0  0  0  0
   69.4531   46.1547   -5.6381 H   0  0  0  0  0  0  0  0  0  0  0  0
   70.3844   45.1256   -6.7785 H   0  0  0  0  0  0  0  0  0  0  0  0
   68.5890   45.0686   -6.7785 H   0  0  0  0  0  0  0  0  0  0  0  0
  1  2  1  0
  2  3  1  0
  3  4  1  0
  4  5  1  0
  3  6  1  0
  6  7  2  0
  7  8  1  0
  8  9  1  0
  9 10  1  0
 10 11  1  0
 11 12  2  0
 12 13  1  0
 13 14  2  0
 14 15  1  0
 15 16  1  0
 15 17  2  0
 17 18  1  0
 18 19  2  0
 18 20  1  0
 20 21  1  0
  8 22  2  0
 22 23  1  0
 23 24  2  0
 24 25  1  0
 24  6  1  0
 20  9  2  0
 17 11  1  0
  1 26  1  0
  1 27  1  0
  1 28  1  0
  2 29  1  0
  2 30  1  0
  4 31  1  0
  4 32  1  0
  5 33  1  0
  5 34  1  0
  5 35  1  0
  7 36  1  0
 12 37  1  0
 13 38  1  0
 14 39  1  0
 16 40  1  0
 21 41  1  0
 22 42  1  0
 23 43  1  0
 25 44  1  0
 25 45  1  0
 25 46  1  0
M  END
>  <meeko>  (9) 
{"is_sidechain": [false], "free_energy": -7.046, "intermolecular_energy": -9.227, "internal_energy": -0.382}

$$$$
