cand_025_out
     RDKit          3D

 53 56  0  0  0  0  0  0  0  0999 V2000
   76.2410   42.9800   -1.9090 C   0  0  0  0  0  0  0  0  0  0  0  0
   75.4980   43.7350   -3.0010 C   0  0  0  0  0  0  0  0  0  0  0  0
   74.3510   42.9270   -3.5680 C   0  0  0  0  0  0  0  0  0  0  0  0
   73.5830   42.1360   -2.6890 C   0  0  0  0  0  0  0  0  0  0  0  0
   72.5130   41.3590   -3.1480 C   0  0  0  0  0  0  0  0  0  0  0  0
   71.7200   40.5080   -2.2360 C   0  0  0  0  0  0  0  0  0  0  0  0
   72.4650   39.4790   -1.6720 O   0  0  0  0  0  0  0  0  0  0  0  0
   71.8500   38.6130   -0.8040 C   0  0  0  0  0  0  0  0  0  0  0  0
   72.6390   37.6060   -0.2490 C   0  0  0  0  0  0  0  0  0  0  0  0
   72.0740   36.6890    0.6420 C   0  0  0  0  0  0  0  0  0  0  0  0
   70.7220   36.7810    0.9760 C   0  0  0  0  0  0  0  0  0  0  0  0
   69.9370   37.7890    0.4220 C   0  0  0  0  0  0  0  0  0  0  0  0
   68.6200   37.8210    0.7920 O   0  0  0  0  0  0  0  0  0  0  0  0
   70.5020   38.7050   -0.4690 C   0  0  0  0  0  0  0  0  0  0  0  0
   69.7130   39.7790   -1.0750 C   0  0  0  0  0  0  0  0  0  0  0  0
   68.5150   39.9200   -0.8340 O   0  0  0  0  0  0  0  0  0  0  0  0
   70.4080   40.7020   -2.0000 C   0  0  0  0  0  0  0  0  0  0  0  0
   69.6500   41.7040   -2.5760 O   0  0  0  0  0  0  0  0  0  0  0  0
   72.2290   41.3660   -4.5180 C   0  0  0  0  0  0  0  0  0  0  0  0
   72.9880   42.1400   -5.4010 C   0  0  0  0  0  0  0  0  0  0  0  0
   74.0590   42.9240   -4.9470 C   0  0  0  0  0  0  0  0  0  0  0  0
   74.8330   43.7140   -5.8190 N   0  0  0  0  0  0  0  0  0  0  0  0
   75.5660   42.9430   -6.8470 C   0  0  0  0  0  0  0  0  0  0  0  0
   76.4820   43.8930   -7.6550 C   0  0  0  0  0  0  0  0  0  0  0  0
   75.7300   45.0010   -8.2900 N   0  0  0  0  0  0  0  0  0  0  0  0
   76.6380   45.9020   -8.9950 C   0  0  0  0  0  0  0  0  0  0  0  0
   74.9740   45.7350   -7.2460 C   0  0  0  0  0  0  0  0  0  0  0  0
   74.0450   44.8120   -6.4210 C   0  0  0  0  0  0  0  0  0  0  0  0
   75.8979   43.3286   -0.9237 H   0  0  0  0  0  0  0  0  0  0  0  0
   76.0410   41.9028   -2.0069 H   0  0  0  0  0  0  0  0  0  0  0  0
   77.3213   43.1627   -2.0069 H   0  0  0  0  0  0  0  0  0  0  0  0
   75.0998   44.6695   -2.5789 H   0  0  0  0  0  0  0  0  0  0  0  0
   76.2072   43.9379   -3.8170 H   0  0  0  0  0  0  0  0  0  0  0  0
   73.8306   42.1294   -1.6172 H   0  0  0  0  0  0  0  0  0  0  0  0
   73.7046   37.5334   -0.5120 H   0  0  0  0  0  0  0  0  0  0  0  0
   72.6955   35.8942    1.0803 H   0  0  0  0  0  0  0  0  0  0  0  0
   70.2771   36.0583    1.6759 H   0  0  0  0  0  0  0  0  0  0  0  0
   68.3900   37.9300    1.6950 H   0  0  0  0  0  0  0  0  0  0  0  0
   69.4200   41.6560   -3.4820 H   0  0  0  0  0  0  0  0  0  0  0  0
   71.3994   40.7558   -4.9047 H   0  0  0  0  0  0  0  0  0  0  0  0
   72.7405   42.1340   -6.4728 H   0  0  0  0  0  0  0  0  0  0  0  0
   76.1792   42.1718   -6.3579 H   0  0  0  0  0  0  0  0  0  0  0  0
   74.8456   42.4649   -7.5271 H   0  0  0  0  0  0  0  0  0  0  0  0
   77.2340   44.3207   -6.9756 H   0  0  0  0  0  0  0  0  0  0  0  0
   76.9508   43.3039   -8.4570 H   0  0  0  0  0  0  0  0  0  0  0  0
   75.0770   44.6170   -8.9730 H   0  0  0  0  0  0  0  0  0  0  0  0
   77.2213   46.4808   -8.2637 H   0  0  0  0  0  0  0  0  0  0  0  0
   77.3209   45.3144   -9.6261 H   0  0  0  0  0  0  0  0  0  0  0  0
   76.0557   46.5894   -9.6261 H   0  0  0  0  0  0  0  0  0  0  0  0
   75.6913   46.2135   -6.5630 H   0  0  0  0  0  0  0  0  0  0  0  0
   74.3397   46.4761   -7.7544 H   0  0  0  0  0  0  0  0  0  0  0  0
   73.5650   45.3969   -5.6226 H   0  0  0  0  0  0  0  0  0  0  0  0
   73.2765   44.3861   -7.0828 H   0  0  0  0  0  0  0  0  0  0  0  0
  1  2  1  0
  2  3  1  0
  3  4  2  0
  4  5  1  0
  5  6  1  0
  6  7  1  0
  7  8  1  0
  8  9  2  0
  9 10  1  0
 10 11  2  0
 11 12  1  0
 12 13  1  0
 12 14  2  0
 14 15  1  0
 15 16  2  0
 15 17  1  0
 17 18  1  0
  5 19  2  0
 19 20  1  0
 20 21  2  0
 21 22  1  0
 22 23  1  0
 23 24  1  0
 24 25  1  0
 25 26  1  0
 25 27  1  0
 27 28  1  0
 21  3  1  0
 28 22  1  0
 17  6  2  0
 14  8  1  0
  1 29  1  0
  1 30  1  0
  1 31  1  0
  2 32  1  0
  2 33  1  0
  4 34  1  0
  9 35  1  0
 10 36  1  0
 11 37  1  0
 13 38  1  0
 18 39  1  0
 19 40  1  0
 20 41  1  0
 23 42  1  0
 23 43  1  0
 24 44  1  0
 24 45  1  0
 25 46  1  0
 26 47  1  0
 26 48  1  0
 26 49  1  0
 27 50  1  0
 27 51  1  0
 28 52  1  0
 28 53  1  0
M  CHG  1  25   1
M  END
>  <meeko>  (1) 
{"is_sidechain": [false], "free_energy": -8.017, "intermolecular_energy": -9.891, "internal_energy": -0.609}

$$$$
cand_025_out
     RDKit          3D

 53 56  0  0  0  0  0  0  0  0999 V2000
   76.3600   42.8030   -1.7750 C   0  0  0  0  0  0  0  0  0  0  0  0
   75.8390   43.4410   -3.0540 C   0  0  0  0  0  0  0  0  0  0  0  0
   74.6300   42.7120   -3.5980 C   0  0  0  0  0  0  0  0  0  0  0  0
   73.8620   41.9260   -2.7170 C   0  0  0  0  0  0  0  0  0  0  0  0
   72.7360   41.2190   -3.1570 C   0  0  0  0  0  0  0  0  0  0  0  0
   71.9400   40.3720   -2.2430 C   0  0  0  0  0  0  0  0  0  0  0  0
   70.5910   40.7040   -2.2350 O   0  0  0  0  0  0  0  0  0  0  0  0
   69.7370   39.9950   -1.4300 C   0  0  0  0  0  0  0  0  0  0  0  0
   68.3890   40.3520   -1.4660 C   0  0  0  0  0  0  0  0  0  0  0  0
   67.4660   39.6710   -0.6680 C   0  0  0  0  0  0  0  0  0  0  0  0
   67.8920   38.6340    0.1640 C   0  0  0  0  0  0  0  0  0  0  0  0
   69.2380   38.2790    0.1970 C   0  0  0  0  0  0  0  0  0  0  0  0
   69.5860   37.2540    1.0340 O   0  0  0  0  0  0  0  0  0  0  0  0
   70.1600   38.9600   -0.6010 C   0  0  0  0  0  0  0  0  0  0  0  0
   71.5840   38.6190   -0.5970 C   0  0  0  0  0  0  0  0  0  0  0  0
   72.0350   37.7240    0.1140 O   0  0  0  0  0  0  0  0  0  0  0  0
   72.4780   39.3970   -1.4850 C   0  0  0  0  0  0  0  0  0  0  0  0
   73.8210   39.0750   -1.4630 O   0  0  0  0  0  0  0  0  0  0  0  0
   72.3950   41.2940   -4.5110 C   0  0  0  0  0  0  0  0  0  0  0  0
   73.1530   42.0650   -5.3980 C   0  0  0  0  0  0  0  0  0  0  0  0
   74.2800   42.7780   -4.9620 C   0  0  0  0  0  0  0  0  0  0  0  0
   75.0540   43.5630   -5.8380 N   0  0  0  0  0  0  0  0  0  0  0  0
   75.8940   42.7830   -6.7730 C   0  0  0  0  0  0  0  0  0  0  0  0
   76.7970   43.7410   -7.5860 C   0  0  0  0  0  0  0  0  0  0  0  0
   76.0170   44.7580   -8.3300 N   0  0  0  0  0  0  0  0  0  0  0  0
   76.9080   45.6730   -9.0390 C   0  0  0  0  0  0  0  0  0  0  0  0
   75.1560   45.5020   -7.3790 C   0  0  0  0  0  0  0  0  0  0  0  0
   74.2380   44.5710   -6.5510 C   0  0  0  0  0  0  0  0  0  0  0  0
   75.9341   43.3246   -0.9052 H   0  0  0  0  0  0  0  0  0  0  0  0
   76.0657   41.7435   -1.7475 H   0  0  0  0  0  0  0  0  0  0  0  0
   77.4570   42.8796   -1.7475 H   0  0  0  0  0  0  0  0  0  0  0  0
   75.5598   44.4838   -2.8428 H   0  0  0  0  0  0  0  0  0  0  0  0
   76.6365   43.3885   -3.8098 H   0  0  0  0  0  0  0  0  0  0  0  0
   74.1536   41.8660   -1.6580 H   0  0  0  0  0  0  0  0  0  0  0  0
   68.0530   41.1687   -2.1218 H   0  0  0  0  0  0  0  0  0  0  0  0
   66.4029   39.9522   -0.6954 H   0  0  0  0  0  0  0  0  0  0  0  0
   67.1654   38.0982    0.7925 H   0  0  0  0  0  0  0  0  0  0  0  0
   69.5600   36.3690    0.7270 H   0  0  0  0  0  0  0  0  0  0  0  0
   74.0960   38.2260   -1.1780 H   0  0  0  0  0  0  0  0  0  0  0  0
   71.5204   40.7401   -4.8828 H   0  0  0  0  0  0  0  0  0  0  0  0
   72.8602   42.1133   -6.4572 H   0  0  0  0  0  0  0  0  0  0  0  0
   76.5229   42.0834   -6.2029 H   0  0  0  0  0  0  0  0  0  0  0  0
   75.2465   42.2204   -7.4617 H   0  0  0  0  0  0  0  0  0  0  0  0
   77.4791   44.2561   -6.8936 H   0  0  0  0  0  0  0  0  0  0  0  0
   77.3490   43.1377   -8.3217 H   0  0  0  0  0  0  0  0  0  0  0  0
   75.4300   44.2930   -9.0240 H   0  0  0  0  0  0  0  0  0  0  0  0
   77.4828   46.2633   -8.3102 H   0  0  0  0  0  0  0  0  0  0  0  0
   77.5995   45.0958   -9.6703 H   0  0  0  0  0  0  0  0  0  0  0  0
   76.3126   46.3489   -9.6703 H   0  0  0  0  0  0  0  0  0  0  0  0
   75.8000   46.0662   -6.6884 H   0  0  0  0  0  0  0  0  0  0  0  0
   74.5090   46.1687   -7.9680 H   0  0  0  0  0  0  0  0  0  0  0  0
   73.6764   45.1697   -5.8188 H   0  0  0  0  0  0  0  0  0  0  0  0
   73.5382   44.0579   -7.2270 H   0  0  0  0  0  0  0  0  0  0  0  0
  1  2  1  0
  2  3  1  0
  3  4  2  0
  4  5  1  0
  5  6  1  0
  6  7  1  0
  7  8  1  0
  8  9  2  0
  9 10  1  0
 10 11  2  0
 11 12  1  0
 12 13  1  0
 12 14  2  0
 14 15  1  0
 15 16  2  0
 15 17  1  0
 17 18  1  0
  5 19  2  0
 19 20  1  0
 20 21  2  0
 21 22  1  0
 22 23  1  0
 23 24  1  0
 24 25  1  0
 25 26  1  0
 25 27  1  0
 27 28  1  0
 21  3  1  0
 28 22  1  0
 17  6  2  0
 14  8  1  0
  1 29  1  0
  1 30  1  0
  1 31  1  0
  2 32  1  0
  2 33  1  0
  4 34  1  0
  9 35  1  0
 10 36  1  0
 11 37  1  0
 13 38  1  0
 18 39  1  0
 19 40  1  0
 20 41  1  0
 23 42  1  0
 23 43  1  0
 24 44  1  0
 24 45  1  0
 25 46  1  0
 26 47  1  0
 26 48  1  0
 26 49  1  0
 27 50  1  0
 27 51  1  0
 28 52  1  0
 28 53  1  0
M  CHG  1  25   1
M  END
>  <meeko>  (2) 
{"is_sidechain": [false], "free_energy": -8.003, "intermolecular_energy": -9.979, "internal_energy": -0.505}

$$$$
cand_025_out
     RDKit          3D

 53 56  0  0  0  0  0  0  0  0999 V2000
   66.5590   44.6290   -2.1210 C   0  0  0  0  0  0  0  0  0  0  0  0
   67.7670   45.1110   -2.9100 C   0  0  0  0  0  0  0  0  0  0  0  0
   68.6760   43.9680   -3.3060 C   0  0  0  0  0  0  0  0  0  0  0  0
   68.7860   42.8610   -2.4410 C   0  0  0  0  0  0  0  0  0  0  0  0
   69.6150   41.7740   -2.7420 C   0  0  0  0  0  0  0  0  0  0  0  0
   69.7540   40.6210   -1.8270 C   0  0  0  0  0  0  0  0  0  0  0  0
   71.0480   40.1150   -1.7870 O   0  0  0  0  0  0  0  0  0  0  0  0
   71.3170   39.0430   -0.9760 C   0  0  0  0  0  0  0  0  0  0  0  0
   72.6310   38.5780   -0.9540 C   0  0  0  0  0  0  0  0  0  0  0  0
   72.9730   37.4880   -0.1500 C   0  0  0  0  0  0  0  0  0  0  0  0
   71.9980   36.8630    0.6310 C   0  0  0  0  0  0  0  0  0  0  0  0
   70.6860   37.3290    0.6080 C   0  0  0  0  0  0  0  0  0  0  0  0
   69.7830   36.6710    1.3970 O   0  0  0  0  0  0  0  0  0  0  0  0
   70.3460   38.4200   -0.1960 C   0  0  0  0  0  0  0  0  0  0  0  0
   68.9790   38.9420   -0.2500 C   0  0  0  0  0  0  0  0  0  0  0  0
   68.0660   38.4400    0.4030 O   0  0  0  0  0  0  0  0  0  0  0  0
   68.7240   40.1070   -1.1280 C   0  0  0  0  0  0  0  0  0  0  0  0
   67.4280   40.5820   -1.1800 O   0  0  0  0  0  0  0  0  0  0  0  0
   70.3590   41.8170   -3.9260 C   0  0  0  0  0  0  0  0  0  0  0  0
   70.2660   42.9130   -4.7890 C   0  0  0  0  0  0  0  0  0  0  0  0
   69.4340   44.0040   -4.4940 C   0  0  0  0  0  0  0  0  0  0  0  0
   69.3220   45.1150   -5.3520 N   0  0  0  0  0  0  0  0  0  0  0  0
   70.6130   45.7520   -5.6930 C   0  0  0  0  0  0  0  0  0  0  0  0
   70.3600   47.0330   -6.5220 C   0  0  0  0  0  0  0  0  0  0  0  0
   69.5830   46.7650   -7.7550 N   0  0  0  0  0  0  0  0  0  0  0  0
   69.3200   48.0070   -8.4780 C   0  0  0  0  0  0  0  0  0  0  0  0
   68.3120   46.0930   -7.3920 C   0  0  0  0  0  0  0  0  0  0  0  0
   68.5320   44.8050   -6.5640 C   0  0  0  0  0  0  0  0  0  0  0  0
   66.7674   44.7122   -1.0441 H   0  0  0  0  0  0  0  0  0  0  0  0
   65.6852   45.2473   -2.3742 H   0  0  0  0  0  0  0  0  0  0  0  0
   66.3509   43.5790   -2.3742 H   0  0  0  0  0  0  0  0  0  0  0  0
   67.4171   45.6189   -3.8208 H   0  0  0  0  0  0  0  0  0  0  0  0
   68.3411   45.7963   -2.2690 H   0  0  0  0  0  0  0  0  0  0  0  0
   68.2062   42.8508   -1.5063 H   0  0  0  0  0  0  0  0  0  0  0  0
   73.3986   39.0694   -1.5698 H   0  0  0  0  0  0  0  0  0  0  0  0
   74.0101   37.1219   -0.1319 H   0  0  0  0  0  0  0  0  0  0  0  0
   72.2663   36.0038    1.2634 H   0  0  0  0  0  0  0  0  0  0  0  0
   70.0820   36.0560    2.0390 H   0  0  0  0  0  0  0  0  0  0  0  0
   66.9450   40.7160   -0.3890 H   0  0  0  0  0  0  0  0  0  0  0  0
   71.0246   40.9791   -4.1808 H   0  0  0  0  0  0  0  0  0  0  0  0
   70.8563   42.9203   -5.7171 H   0  0  0  0  0  0  0  0  0  0  0  0
   71.1466   46.0148   -4.7677 H   0  0  0  0  0  0  0  0  0  0  0  0
   71.2204   45.0503   -6.2835 H   0  0  0  0  0  0  0  0  0  0  0  0
   69.8021   47.7503   -5.9021 H   0  0  0  0  0  0  0  0  0  0  0  0
   71.3383   47.4354   -6.8235 H   0  0  0  0  0  0  0  0  0  0  0  0
   70.1250   46.1540   -8.3680 H   0  0  0  0  0  0  0  0  0  0  0  0
   69.1477   48.8208   -7.7583 H   0  0  0  0  0  0  0  0  0  0  0  0
   70.1858   48.2537   -9.1101 H   0  0  0  0  0  0  0  0  0  0  0  0
   68.4285   47.8816   -9.1101 H   0  0  0  0  0  0  0  0  0  0  0  0
   67.7013   46.7912   -6.8008 H   0  0  0  0  0  0  0  0  0  0  0  0
   67.8102   45.8046   -8.3274 H   0  0  0  0  0  0  0  0  0  0  0  0
   67.5570   44.3906   -6.2679 H   0  0  0  0  0  0  0  0  0  0  0  0
   69.0779   44.0706   -7.1744 H   0  0  0  0  0  0  0  0  0  0  0  0
  1  2  1  0
  2  3  1  0
  3  4  2  0
  4  5  1  0
  5  6  1  0
  6  7  1  0
  7  8  1  0
  8  9  2  0
  9 10  1  0
 10 11  2  0
 11 12  1  0
 12 13  1  0
 12 14  2  0
 14 15  1  0
 15 16  2  0
 15 17  1  0
 17 18  1  0
  5 19  2  0
 19 20  1  0
 20 21  2  0
 21 22  1  0
 22 23  1  0
 23 24  1  0
 24 25  1  0
 25 26  1  0
 25 27  1  0
 27 28  1  0
 21  3  1  0
 28 22  1  0
 17  6  2  0
 14  8  1  0
  1 29  1  0
  1 30  1  0
  1 31  1  0
  2 32  1  0
  2 33  1  0
  4 34  1  0
  9 35  1  0
 10 36  1  0
 11 37  1  0
 13 38  1  0
 18 39  1  0
 19 40  1  0
 20 41  1  0
 23 42  1  0
 23 43  1  0
 24 44  1  0
 24 45  1  0
 25 46  1  0
 26 47  1  0
 26 48  1  0
 26 49  1  0
 27 50  1  0
 27 51  1  0
 28 52  1  0
 28 53  1  0
M  CHG  1  25   1
M  END
>  <meeko>  (3) 
{"is_sidechain": [false], "free_energy": -7.847, "intermolecular_energy": -9.959, "internal_energy": -0.333}

$$$$
cand_025_out
     RDKit          3D

 53 56  0  0  0  0  0  0  0  0999 V2000
   75.3090   42.6160   -6.9010 C   0  0  0  0  0  0  0  0  0  0  0  0
   73.7990   42.7800   -6.8150 C   0  0  0  0  0  0  0  0  0  0  0  0
   73.3420   43.0800   -5.4050 C   0  0  0  0  0  0  0  0  0  0  0  0
   73.0780   42.0010   -4.5370 C   0  0  0  0  0  0  0  0  0  0  0  0
   72.6440   42.2070   -3.2220 C   0  0  0  0  0  0  0  0  0  0  0  0
   72.3410   41.0800   -2.3150 C   0  0  0  0  0  0  0  0  0  0  0  0
   70.9940   41.0010   -1.9820 O   0  0  0  0  0  0  0  0  0  0  0  0
   70.5740   39.9990   -1.1450 C   0  0  0  0  0  0  0  0  0  0  0  0
   69.2120   39.9470   -0.8510 C   0  0  0  0  0  0  0  0  0  0  0  0
   68.7190   38.9510   -0.0040 C   0  0  0  0  0  0  0  0  0  0  0  0
   69.5890   38.0090    0.5480 C   0  0  0  0  0  0  0  0  0  0  0  0
   70.9480   38.0620    0.2520 C   0  0  0  0  0  0  0  0  0  0  0  0
   71.7430   37.1090    0.8270 O   0  0  0  0  0  0  0  0  0  0  0  0
   71.4410   39.0580   -0.5950 C   0  0  0  0  0  0  0  0  0  0  0  0
   72.8620   39.1500   -0.9330 C   0  0  0  0  0  0  0  0  0  0  0  0
   73.6900   38.3610   -0.4800 O   0  0  0  0  0  0  0  0  0  0  0  0
   73.2810   40.2380   -1.8460 C   0  0  0  0  0  0  0  0  0  0  0  0
   74.6270   40.3220   -2.1470 O   0  0  0  0  0  0  0  0  0  0  0  0
   72.4550   43.5230   -2.7860 C   0  0  0  0  0  0  0  0  0  0  0  0
   72.7060   44.6020   -3.6390 C   0  0  0  0  0  0  0  0  0  0  0  0
   73.1440   44.4020   -4.9570 C   0  0  0  0  0  0  0  0  0  0  0  0
   73.4070   45.4740   -5.8300 N   0  0  0  0  0  0  0  0  0  0  0  0
   72.2420   46.3510   -6.0830 C   0  0  0  0  0  0  0  0  0  0  0  0
   72.6070   47.4060   -7.1550 C   0  0  0  0  0  0  0  0  0  0  0  0
   73.7840   48.2210   -6.7700 N   0  0  0  0  0  0  0  0  0  0  0  0
   74.1260   49.1640   -7.8320 C   0  0  0  0  0  0  0  0  0  0  0  0
   74.9260   47.3190   -6.4860 C   0  0  0  0  0  0  0  0  0  0  0  0
   74.5940   46.2530   -5.4140 C   0  0  0  0  0  0  0  0  0  0  0  0
   75.7312   42.5701   -5.8863 H   0  0  0  0  0  0  0  0  0  0  0  0
   75.5468   41.6867   -7.4394 H   0  0  0  0  0  0  0  0  0  0  0  0
   75.7408   43.4725   -7.4394 H   0  0  0  0  0  0  0  0  0  0  0  0
   73.4936   43.6083   -7.4713 H   0  0  0  0  0  0  0  0  0  0  0  0
   73.3356   41.8329   -7.1285 H   0  0  0  0  0  0  0  0  0  0  0  0
   73.2163   40.9725   -4.9017 H   0  0  0  0  0  0  0  0  0  0  0  0
   68.5263   40.6893   -1.2854 H   0  0  0  0  0  0  0  0  0  0  0  0
   67.6446   38.9091    0.2280 H   0  0  0  0  0  0  0  0  0  0  0  0
   69.2010   37.2259    1.2160 H   0  0  0  0  0  0  0  0  0  0  0  0
   71.8060   36.2560    0.4410 H   0  0  0  0  0  0  0  0  0  0  0  0
   74.9880   39.8010   -2.8360 H   0  0  0  0  0  0  0  0  0  0  0  0
   72.1049   43.7109   -1.7603 H   0  0  0  0  0  0  0  0  0  0  0  0
   72.5573   45.6274   -3.2698 H   0  0  0  0  0  0  0  0  0  0  0  0
   71.3976   45.7434   -6.4404 H   0  0  0  0  0  0  0  0  0  0  0  0
   71.9606   46.8615   -5.1501 H   0  0  0  0  0  0  0  0  0  0  0  0
   72.8303   46.8874   -8.0990 H   0  0  0  0  0  0  0  0  0  0  0  0
   71.7490   48.0862   -7.2611 H   0  0  0  0  0  0  0  0  0  0  0  0
   73.5610   48.7590   -5.9320 H   0  0  0  0  0  0  0  0  0  0  0  0
   74.4689   50.1095   -7.3864 H   0  0  0  0  0  0  0  0  0  0  0  0
   74.9276   48.7401   -8.4546 H   0  0  0  0  0  0  0  0  0  0  0  0
   73.2390   49.3525   -8.4546 H   0  0  0  0  0  0  0  0  0  0  0  0
   75.2087   46.8056   -7.4169 H   0  0  0  0  0  0  0  0  0  0  0  0
   75.7481   47.9371   -6.0960 H   0  0  0  0  0  0  0  0  0  0  0  0
   75.4521   45.5751   -5.2956 H   0  0  0  0  0  0  0  0  0  0  0  0
   74.3818   46.7542   -4.4581 H   0  0  0  0  0  0  0  0  0  0  0  0
  1  2  1  0
  2  3  1  0
  3  4  2  0
  4  5  1  0
  5  6  1  0
  6  7  1  0
  7  8  1  0
  8  9  2  0
  9 10  1  0
 10 11  2  0
 11 12  1  0
 12 13  1  0
 12 14  2  0
 14 15  1  0
 15 16  2  0
 15 17  1  0
 17 18  1  0
  5 19  2  0
 19 20  1  0
 20 21  2  0
 21 22  1  0
 22 23  1  0
 23 24  1  0
 24 25  1  0
 25 26  1  0
 25 27  1  0
 27 28  1  0
 21  3  1  0
 28 22  1  0
 17  6  2  0
 14  8  1  0
  1 29  1  0
  1 30  1  0
  1 31  1  0
  2 32  1  0
  2 33  1  0
  4 34  1  0
  9 35  1  0
 10 36  1  0
 11 37  1  0
 13 38  1  0
 18 39  1  0
 19 40  1  0
 20 41  1  0
 23 42  1  0
 23 43  1  0
 24 44  1  0
 24 45  1  0
 25 46  1  0
 26 47  1  0
 26 48  1  0
 26 49  1  0
 27 50  1  0
 27 51  1  0
 28 52  1  0
 28 53  1  0
M  CHG  1  25   1
M  END
>  <meeko>  (4) 
{"is_sidechain": [false], "free_energy": -7.717, "intermolecular_energy": -9.472, "internal_energy": -0.659}

$$$$
cand_025_out
     RDKit          3D

 53 56  0  0  0  0  0  0  0  0999 V2000
   76.1290   44.7560   -3.0140 C   0  0  0  0  0  0  0  0  0  0  0  0
   74.7280   45.2550   -3.3310 C   0  0  0  0  0  0  0  0  0  0  0  0
   73.8300   44.1440   -3.8300 C   0  0  0  0  0  0  0  0  0  0  0  0
   73.4600   43.1210   -2.9340 C   0  0  0  0  0  0  0  0  0  0  0  0
   72.6390   42.0590   -3.3330 C   0  0  0  0  0  0  0  0  0  0  0  0
   72.2680   40.9690   -2.4060 C   0  0  0  0  0  0  0  0  0  0  0  0
   70.9080   40.9430   -2.1190 O   0  0  0  0  0  0  0  0  0  0  0  0
   70.4270   39.9790   -1.2700 C   0  0  0  0  0  0  0  0  0  0  0  0
   69.0550   39.9800   -1.0230 C   0  0  0  0  0  0  0  0  0  0  0  0
   68.5000   39.0260   -0.1660 C   0  0  0  0  0  0  0  0  0  0  0  0
   69.3190   38.0730    0.4420 C   0  0  0  0  0  0  0  0  0  0  0  0
   70.6880   38.0730    0.1930 C   0  0  0  0  0  0  0  0  0  0  0  0
   71.4310   37.1120    0.8220 O   0  0  0  0  0  0  0  0  0  0  0  0
   71.2430   39.0270   -0.6640 C   0  0  0  0  0  0  0  0  0  0  0  0
   72.6770   39.0640   -0.9530 C   0  0  0  0  0  0  0  0  0  0  0  0
   73.4620   38.2620   -0.4500 O   0  0  0  0  0  0  0  0  0  0  0  0
   73.1630   40.1100   -1.8810 C   0  0  0  0  0  0  0  0  0  0  0  0
   74.5210   40.1430   -2.1360 O   0  0  0  0  0  0  0  0  0  0  0  0
   72.2020   42.0230   -4.6610 C   0  0  0  0  0  0  0  0  0  0  0  0
   72.5680   43.0280   -5.5620 C   0  0  0  0  0  0  0  0  0  0  0  0
   73.3880   44.0960   -5.1680 C   0  0  0  0  0  0  0  0  0  0  0  0
   73.7640   45.1200   -6.0580 N   0  0  0  0  0  0  0  0  0  0  0  0
   74.3880   44.6390   -7.3090 C   0  0  0  0  0  0  0  0  0  0  0  0
   74.8820   45.8450   -8.1430 C   0  0  0  0  0  0  0  0  0  0  0  0
   73.7930   46.8020   -8.4530 N   0  0  0  0  0  0  0  0  0  0  0  0
   74.3120   47.9500   -9.1930 C   0  0  0  0  0  0  0  0  0  0  0  0
   73.1580   47.2410   -7.1870 C   0  0  0  0  0  0  0  0  0  0  0  0
   72.6510   46.0570   -6.3300 C   0  0  0  0  0  0  0  0  0  0  0  0
   76.2631   44.7082   -1.9233 H   0  0  0  0  0  0  0  0  0  0  0  0
   76.2673   43.7533   -3.4447 H   0  0  0  0  0  0  0  0  0  0  0  0
   76.8700   45.4455   -3.4447 H   0  0  0  0  0  0  0  0  0  0  0  0
   74.2887   45.6838   -2.4182 H   0  0  0  0  0  0  0  0  0  0  0  0
   74.8082   46.0103   -4.1267 H   0  0  0  0  0  0  0  0  0  0  0  0
   73.8247   43.1576   -1.8969 H   0  0  0  0  0  0  0  0  0  0  0  0
   68.4099   40.7311   -1.5023 H   0  0  0  0  0  0  0  0  0  0  0  0
   67.4175   39.0260    0.0296 H   0  0  0  0  0  0  0  0  0  0  0  0
   68.8824   37.3226    1.1175 H   0  0  0  0  0  0  0  0  0  0  0  0
   72.3600   37.2110    0.8960 H   0  0  0  0  0  0  0  0  0  0  0  0
   74.8460   40.5930   -2.8910 H   0  0  0  0  0  0  0  0  0  0  0  0
   71.5630   41.1946   -5.0008 H   0  0  0  0  0  0  0  0  0  0  0  0
   72.2060   42.9802   -6.5996 H   0  0  0  0  0  0  0  0  0  0  0  0
   75.2412   43.9889   -7.0655 H   0  0  0  0  0  0  0  0  0  0  0  0
   73.6464   44.0728   -7.8915 H   0  0  0  0  0  0  0  0  0  0  0  0
   75.6634   46.3710   -7.5749 H   0  0  0  0  0  0  0  0  0  0  0  0
   75.2691   45.4571   -9.0968 H   0  0  0  0  0  0  0  0  0  0  0  0
   73.0960   46.3410   -9.0390 H   0  0  0  0  0  0  0  0  0  0  0  0
   74.6586   48.7167   -8.4845 H   0  0  0  0  0  0  0  0  0  0  0  0
   75.1524   47.6288   -9.8258 H   0  0  0  0  0  0  0  0  0  0  0  0
   73.5157   48.3688   -9.8258 H   0  0  0  0  0  0  0  0  0  0  0  0
   73.8965   47.8082   -6.6014 H   0  0  0  0  0  0  0  0  0  0  0  0
   72.2858   47.8577   -7.4498 H   0  0  0  0  0  0  0  0  0  0  0  0
   72.2548   46.4392   -5.3777 H   0  0  0  0  0  0  0  0  0  0  0  0
   71.8569   45.5276   -6.8769 H   0  0  0  0  0  0  0  0  0  0  0  0
  1  2  1  0
  2  3  1  0
  3  4  2  0
  4  5  1  0
  5  6  1  0
  6  7  1  0
  7  8  1  0
  8  9  2  0
  9 10  1  0
 10 11  2  0
 11 12  1  0
 12 13  1  0
 12 14  2  0
 14 15  1  0
 15 16  2  0
 15 17  1  0
 17 18  1  0
  5 19  2  0
 19 20  1  0
 20 21  2  0
 21 22  1  0
 22 23  1  0
 23 24  1  0
 24 25  1  0
 25 26  1  0
 25 27  1  0
 27 28  1  0
 21  3  1  0
 28 22  1  0
 17  6  2  0
 14  8  1  0
  1 29  1  0
  1 30  1  0
  1 31  1  0
  2 32  1  0
  2 33  1  0
  4 34  1  0
  9 35  1  0
 10 36  1  0
 11 37  1  0
 13 38  1  0
 18 39  1  0
 19 40  1  0
 20 41  1  0
 23 42  1  0
 23 43  1  0
 24 44  1  0
 24 45  1  0
 25 46  1  0
 26 47  1  0
 26 48  1  0
 26 49  1  0
 27 50  1  0
 27 51  1  0
 28 52  1  0
 28 53  1  0
M  CHG  1  25   1
M  END
>  <meeko>  (5) 
{"is_sidechain": [false], "free_energy": -7.714, "intermolecular_energy": -9.508, "internal_energy": -0.62}

$$$$
cand_025_out
     RDKit          3D

 53 56  0  0  0  0  0  0  0  0999 V2000
   67.0550   43.9550   -2.1220 C   0  0  0  0  0  0  0  0  0  0  0  0
   68.0890   44.7060   -2.9470 C   0  0  0  0  0  0  0  0  0  0  0  0
   69.1520   43.7830   -3.4990 C   0  0  0  0  0  0  0  0  0  0  0  0
   69.6160   42.7260   -2.6890 C   0  0  0  0  0  0  0  0  0  0  0  0
   70.6040   41.8400   -3.1350 C   0  0  0  0  0  0  0  0  0  0  0  0
   71.1130   40.7460   -2.2820 C   0  0  0  0  0  0  0  0  0  0  0  0
   70.1210   40.1650   -1.5000 O   0  0  0  0  0  0  0  0  0  0  0  0
   70.4560   39.1340   -0.6600 C   0  0  0  0  0  0  0  0  0  0  0  0
   69.4270   38.5700    0.0940 C   0  0  0  0  0  0  0  0  0  0  0  0
   69.7010   37.5170    0.9710 C   0  0  0  0  0  0  0  0  0  0  0  0
   71.0040   37.0300    1.0920 C   0  0  0  0  0  0  0  0  0  0  0  0
   72.0290   37.5940    0.3380 C   0  0  0  0  0  0  0  0  0  0  0  0
   73.2810   37.0680    0.5060 O   0  0  0  0  0  0  0  0  0  0  0  0
   71.7550   38.6460   -0.5390 C   0  0  0  0  0  0  0  0  0  0  0  0
   72.8030   39.2680   -1.3500 C   0  0  0  0  0  0  0  0  0  0  0  0
   73.9740   38.8980   -1.2930 O   0  0  0  0  0  0  0  0  0  0  0  0
   72.4060   40.3720   -2.2540 C   0  0  0  0  0  0  0  0  0  0  0  0
   73.4060   40.9590   -3.0050 O   0  0  0  0  0  0  0  0  0  0  0  0
   71.1440   42.0380   -4.4100 C   0  0  0  0  0  0  0  0  0  0  0  0
   70.6990   43.0870   -5.2200 C   0  0  0  0  0  0  0  0  0  0  0  0
   69.7070   43.9760   -4.7800 C   0  0  0  0  0  0  0  0  0  0  0  0
   69.2410   45.0360   -5.5820 N   0  0  0  0  0  0  0  0  0  0  0  0
   70.3010   45.9560   -6.0490 C   0  0  0  0  0  0  0  0  0  0  0  0
   69.6630   47.1490   -6.8000 C   0  0  0  0  0  0  0  0  0  0  0  0
   68.8260   46.7140   -7.9440 N   0  0  0  0  0  0  0  0  0  0  0  0
   68.2000   47.8650   -8.5900 C   0  0  0  0  0  0  0  0  0  0  0  0
   67.7960   45.7650   -7.4590 C   0  0  0  0  0  0  0  0  0  0  0  0
   68.4030   44.5580   -6.7050 C   0  0  0  0  0  0  0  0  0  0  0  0
   67.2609   44.1045   -1.0518 H   0  0  0  0  0  0  0  0  0  0  0  0
   66.0504   44.3354   -2.3588 H   0  0  0  0  0  0  0  0  0  0  0  0
   67.1060   42.8820   -2.3588 H   0  0  0  0  0  0  0  0  0  0  0  0
   67.5806   45.2040   -3.7858 H   0  0  0  0  0  0  0  0  0  0  0  0
   68.5820   45.4375   -2.2898 H   0  0  0  0  0  0  0  0  0  0  0  0
   69.1915   42.5945   -1.6827 H   0  0  0  0  0  0  0  0  0  0  0  0
   68.4006   38.9538   -0.0016 H   0  0  0  0  0  0  0  0  0  0  0  0
   68.8900   37.0718    1.5661 H   0  0  0  0  0  0  0  0  0  0  0  0
   71.2202   36.2015    1.7825 H   0  0  0  0  0  0  0  0  0  0  0  0
   73.8680   37.0130   -0.2230 H   0  0  0  0  0  0  0  0  0  0  0  0
   74.2910   40.9490   -2.6980 H   0  0  0  0  0  0  0  0  0  0  0  0
   71.9278   41.3605   -4.7796 H   0  0  0  0  0  0  0  0  0  0  0  0
   71.1350   43.2178   -6.2214 H   0  0  0  0  0  0  0  0  0  0  0  0
   70.8680   46.3298   -5.1837 H   0  0  0  0  0  0  0  0  0  0  0  0
   70.9772   45.4172   -6.7291 H   0  0  0  0  0  0  0  0  0  0  0  0
   69.0337   47.7137   -6.0963 H   0  0  0  0  0  0  0  0  0  0  0  0
   70.4790   47.7699   -7.1983 H   0  0  0  0  0  0  0  0  0  0  0  0
   69.4150   46.2490   -8.6350 H   0  0  0  0  0  0  0  0  0  0  0  0
   67.8238   48.5568   -7.8220 H   0  0  0  0  0  0  0  0  0  0  0  0
   68.9414   48.3816   -9.2172 H   0  0  0  0  0  0  0  0  0  0  0  0
   67.3634   47.5233   -9.2172 H   0  0  0  0  0  0  0  0  0  0  0  0
   67.1174   46.2999   -6.7783 H   0  0  0  0  0  0  0  0  0  0  0  0
   67.2646   45.3736   -8.3390 H   0  0  0  0  0  0  0  0  0  0  0  0
   67.5916   43.9276   -6.3122 H   0  0  0  0  0  0  0  0  0  0  0  0
   69.0253   43.9732   -7.3983 H   0  0  0  0  0  0  0  0  0  0  0  0
  1  2  1  0
  2  3  1  0
  3  4  2  0
  4  5  1  0
  5  6  1  0
  6  7  1  0
  7  8  1  0
  8  9  2  0
  9 10  1  0
 10 11  2  0
 11 12  1  0
 12 13  1  0
 12 14  2  0
 14 15  1  0
 15 16  2  0
 15 17  1  0
 17 18  1  0
  5 19  2  0
 19 20  1  0
 20 21  2  0
 21 22  1  0
 22 23  1  0
 23 24  1  0
 24 25  1  0
 25 26  1  0
 25 27  1  0
 27 28  1  0
 21  3  1  0
 28 22  1  0
 17  6  2  0
 14  8  1  0
  1 29  1  0
  1 30  1  0
  1 31  1  0
  2 32  1  0
  2 33  1  0
  4 34  1  0
  9 35  1  0
 10 36  1  0
 11 37  1  0
 13 38  1  0
 18 39  1  0
 19 40  1  0
 20 41  1  0
 23 42  1  0
 23 43  1  0
 24 44  1  0
 24 45  1  0
 25 46  1  0
 26 47  1  0
 26 48  1  0
 26 49  1  0
 27 50  1  0
 27 51  1  0
 28 52  1  0
 28 53  1  0
M  CHG  1  25   1
M  END
>  <meeko>  (6) 
{"is_sidechain": [false], "free_energy": -7.587, "intermolecular_energy": -9.696, "internal_energy": -0.275}

$$$$
cand_025_out
     RDKit          3D

 53 56  0  0  0  0  0  0  0  0999 V2000
   72.5030   42.6770   -5.4530 C   0  0  0  0  0  0  0  0  0  0  0  0
   71.2830   43.5720   -5.6050 C   0  0  0  0  0  0  0  0  0  0  0  0
   70.1050   43.0640   -4.8030 C   0  0  0  0  0  0  0  0  0  0  0  0
   70.3310   42.0810   -3.8180 C   0  0  0  0  0  0  0  0  0  0  0  0
   69.2850   41.5620   -3.0460 C   0  0  0  0  0  0  0  0  0  0  0  0
   69.5110   40.5140   -2.0290 C   0  0  0  0  0  0  0  0  0  0  0  0
   70.8250   40.0600   -2.0030 O   0  0  0  0  0  0  0  0  0  0  0  0
   71.1740   39.0860   -1.1040 C   0  0  0  0  0  0  0  0  0  0  0  0
   72.5060   38.6730   -1.1020 C   0  0  0  0  0  0  0  0  0  0  0  0
   72.9280   37.6820   -0.2110 C   0  0  0  0  0  0  0  0  0  0  0  0
   72.0160   37.1060    0.6760 C   0  0  0  0  0  0  0  0  0  0  0  0
   70.6870   37.5210    0.6730 C   0  0  0  0  0  0  0  0  0  0  0  0
   69.8490   36.9150    1.5680 O   0  0  0  0  0  0  0  0  0  0  0  0
   70.2670   38.5120   -0.2180 C   0  0  0  0  0  0  0  0  0  0  0  0
   68.8790   38.9780   -0.2540 C   0  0  0  0  0  0  0  0  0  0  0  0
   68.0180   38.5140    0.4910 O   0  0  0  0  0  0  0  0  0  0  0  0
   68.5370   40.0380   -1.2300 C   0  0  0  0  0  0  0  0  0  0  0  0
   67.2220   40.4600   -1.2650 O   0  0  0  0  0  0  0  0  0  0  0  0
   67.9890   42.0300   -3.2880 C   0  0  0  0  0  0  0  0  0  0  0  0
   67.7490   42.9990   -4.2670 C   0  0  0  0  0  0  0  0  0  0  0  0
   68.7940   43.5250   -5.0420 C   0  0  0  0  0  0  0  0  0  0  0  0
   68.5750   44.5040   -6.0300 N   0  0  0  0  0  0  0  0  0  0  0  0
   67.4710   44.1890   -6.9630 C   0  0  0  0  0  0  0  0  0  0  0  0
   67.4110   45.2590   -8.0790 C   0  0  0  0  0  0  0  0  0  0  0  0
   67.2470   46.6300   -7.5410 N   0  0  0  0  0  0  0  0  0  0  0  0
   67.2500   47.6120   -8.6230 C   0  0  0  0  0  0  0  0  0  0  0  0
   68.3430   46.9090   -6.5810 C   0  0  0  0  0  0  0  0  0  0  0  0
   68.4280   45.8570   -5.4490 C   0  0  0  0  0  0  0  0  0  0  0  0
   72.7136   42.5225   -4.3845 H   0  0  0  0  0  0  0  0  0  0  0  0
   72.3077   41.7064   -5.9323 H   0  0  0  0  0  0  0  0  0  0  0  0
   73.3702   43.1547   -5.9323 H   0  0  0  0  0  0  0  0  0  0  0  0
   71.5392   44.5839   -5.2580 H   0  0  0  0  0  0  0  0  0  0  0  0
   70.9949   43.5770   -6.6666 H   0  0  0  0  0  0  0  0  0  0  0  0
   71.3542   41.7129   -3.6521 H   0  0  0  0  0  0  0  0  0  0  0  0
   73.2240   39.1267   -1.8010 H   0  0  0  0  0  0  0  0  0  0  0  0
   73.9785   37.3558   -0.2085 H   0  0  0  0  0  0  0  0  0  0  0  0
   72.3473   36.3252    1.3764 H   0  0  0  0  0  0  0  0  0  0  0  0
   70.1940   36.3200    2.2050 H   0  0  0  0  0  0  0  0  0  0  0  0
   66.5300   39.8540   -1.0880 H   0  0  0  0  0  0  0  0  0  0  0  0
   67.1487   41.6308   -2.7010 H   0  0  0  0  0  0  0  0  0  0  0  0
   66.7218   43.3557   -4.4328 H   0  0  0  0  0  0  0  0  0  0  0  0
   67.6434   43.2002   -7.4132 H   0  0  0  0  0  0  0  0  0  0  0  0
   66.5188   44.1828   -6.4123 H   0  0  0  0  0  0  0  0  0  0  0  0
   68.3447   45.2168   -8.6590 H   0  0  0  0  0  0  0  0  0  0  0  0
   66.5351   45.0389   -8.7070 H   0  0  0  0  0  0  0  0  0  0  0  0
   66.3510   46.6980   -7.0590 H   0  0  0  0  0  0  0  0  0  0  0  0
   67.2531   48.6264   -8.1975 H   0  0  0  0  0  0  0  0  0  0  0  0
   68.1477   47.4717   -9.2430 H   0  0  0  0  0  0  0  0  0  0  0  0
   66.3514   47.4772   -9.2430 H   0  0  0  0  0  0  0  0  0  0  0  0
   69.2972   46.9148   -7.1283 H   0  0  0  0  0  0  0  0  0  0  0  0
   68.1357   47.8832   -6.1142 H   0  0  0  0  0  0  0  0  0  0  0  0
   69.2969   46.0766   -4.8112 H   0  0  0  0  0  0  0  0  0  0  0  0
   67.5073   45.8955   -4.8484 H   0  0  0  0  0  0  0  0  0  0  0  0
  1  2  1  0
  2  3  1  0
  3  4  2  0
  4  5  1  0
  5  6  1  0
  6  7  1  0
  7  8  1  0
  8  9  2  0
  9 10  1  0
 10 11  2  0
 11 12  1  0
 12 13  1  0
 12 14  2  0
 14 15  1  0
 15 16  2  0
 15 17  1  0
 17 18  1  0
  5 19  2  0
 19 20  1  0
 20 21  2  0
 21 22  1  0
 22 23  1  0
 23 24  1  0
 24 25  1  0
 25 26  1  0
 25 27  1  0
 27 28  1  0
 21  3  1  0
 28 22  1  0
 17  6  2  0
 14  8  1  0
  1 29  1  0
  1 30  1  0
  1 31  1  0
  2 32  1  0
  2 33  1  0
  4 34  1  0
  9 35  1  0
 10 36  1  0
 11 37  1  0
 13 38  1  0
 18 39  1  0
 19 40  1  0
 20 41  1  0
 23 42  1  0
 23 43  1  0
 24 44  1  0
 24 45  1  0
 25 46  1  0
 26 47  1  0
 26 48  1  0
 26 49  1  0
 27 50  1  0
 27 51  1  0
 28 52  1  0
 28 53  1  0
M  CHG  1  25   1
M  END
>  <meeko>  (7) 
{"is_sidechain": [false], "free_energy": -7.579, "intermolecular_energy": -9.974, "internal_energy": 0.014}

$$$$
cand_025_out
     RDKit          3D

 53 56  0  0  0  0  0  0  0  0999 V2000
   72.3440   43.9910   -5.5690 C   0  0  0  0  0  0  0  0  0  0  0  0
   70.8800   44.4020   -5.6040 C   0  0  0  0  0  0  0  0  0  0  0  0
   70.0090   43.4630   -4.7990 C   0  0  0  0  0  0  0  0  0  0  0  0
   70.6290   42.4620   -4.0260 C   0  0  0  0  0  0  0  0  0  0  0  0
   69.8820   41.5550   -3.2640 C   0  0  0  0  0  0  0  0  0  0  0  0
   70.5260   40.4870   -2.4710 C   0  0  0  0  0  0  0  0  0  0  0  0
   69.8610   40.2230   -1.2790 O   0  0  0  0  0  0  0  0  0  0  0  0
   70.3520   39.2510   -0.4460 C   0  0  0  0  0  0  0  0  0  0  0  0
   69.6450   39.0090    0.7320 C   0  0  0  0  0  0  0  0  0  0  0  0
   70.0920   38.0330    1.6260 C   0  0  0  0  0  0  0  0  0  0  0  0
   71.2470   37.3010    1.3420 C   0  0  0  0  0  0  0  0  0  0  0  0
   71.9510   37.5440    0.1660 C   0  0  0  0  0  0  0  0  0  0  0  0
   73.0730   36.7920   -0.0500 O   0  0  0  0  0  0  0  0  0  0  0  0
   71.5030   38.5200   -0.7280 C   0  0  0  0  0  0  0  0  0  0  0  0
   72.2130   38.8080   -1.9760 C   0  0  0  0  0  0  0  0  0  0  0  0
   73.2400   38.2100   -2.2920 O   0  0  0  0  0  0  0  0  0  0  0  0
   71.6510   39.8560   -2.8590 C   0  0  0  0  0  0  0  0  0  0  0  0
   72.3370   40.1270   -4.0270 O   0  0  0  0  0  0  0  0  0  0  0  0
   68.4880   41.6510   -3.3010 C   0  0  0  0  0  0  0  0  0  0  0  0
   67.8590   42.6350   -4.0700 C   0  0  0  0  0  0  0  0  0  0  0  0
   68.6020   43.5490   -4.8330 C   0  0  0  0  0  0  0  0  0  0  0  0
   67.9880   44.5500   -5.6100 N   0  0  0  0  0  0  0  0  0  0  0  0
   67.4300   44.0670   -6.8920 C   0  0  0  0  0  0  0  0  0  0  0  0
   66.9080   45.2660   -7.7180 C   0  0  0  0  0  0  0  0  0  0  0  0
   65.8910   46.0580   -6.9860 N   0  0  0  0  0  0  0  0  0  0  0  0
   65.4650   47.2090   -7.7780 C   0  0  0  0  0  0  0  0  0  0  0  0
   66.4590   46.4980   -5.6900 C   0  0  0  0  0  0  0  0  0  0  0  0
   66.9890   45.3200   -4.8370 C   0  0  0  0  0  0  0  0  0  0  0  0
   72.6739   43.8984   -4.5237 H   0  0  0  0  0  0  0  0  0  0  0  0
   72.4657   43.0240   -6.0790 H   0  0  0  0  0  0  0  0  0  0  0  0
   72.9512   44.7534   -6.0790 H   0  0  0  0  0  0  0  0  0  0  0  0
   70.7859   45.4167   -5.1898 H   0  0  0  0  0  0  0  0  0  0  0  0
   70.5418   44.3666   -6.6501 H   0  0  0  0  0  0  0  0  0  0  0  0
   71.7267   42.3909   -4.0207 H   0  0  0  0  0  0  0  0  0  0  0  0
   68.7361   39.5863    0.9568 H   0  0  0  0  0  0  0  0  0  0  0  0
   69.5339   37.8409    2.5542 H   0  0  0  0  0  0  0  0  0  0  0  0
   71.5999   36.5335    2.0466 H   0  0  0  0  0  0  0  0  0  0  0  0
   73.0840   36.1540   -0.7380 H   0  0  0  0  0  0  0  0  0  0  0  0
   71.9050   40.0470   -4.8540 H   0  0  0  0  0  0  0  0  0  0  0  0
   67.8787   40.9443   -2.7184 H   0  0  0  0  0  0  0  0  0  0  0  0
   66.7606   42.6938   -4.0770 H   0  0  0  0  0  0  0  0  0  0  0  0
   68.2153   43.5462   -7.4595 H   0  0  0  0  0  0  0  0  0  0  0  0
   66.5995   43.3746   -6.6900 H   0  0  0  0  0  0  0  0  0  0  0  0
   67.7564   45.9216   -7.9635 H   0  0  0  0  0  0  0  0  0  0  0  0
   66.4315   44.8657   -8.6250 H   0  0  0  0  0  0  0  0  0  0  0  0
   65.0700   45.4760   -6.8150 H   0  0  0  0  0  0  0  0  0  0  0  0
   65.1629   48.0253   -7.1054 H   0  0  0  0  0  0  0  0  0  0  0  0
   66.2980   47.5460   -8.4125 H   0  0  0  0  0  0  0  0  0  0  0  0
   64.6133   46.9225   -8.4125 H   0  0  0  0  0  0  0  0  0  0  0  0
   67.2902   47.1908   -5.8876 H   0  0  0  0  0  0  0  0  0  0  0  0
   65.6512   46.9818   -5.1213 H   0  0  0  0  0  0  0  0  0  0  0  0
   67.4586   45.7133   -3.9233 H   0  0  0  0  0  0  0  0  0  0  0  0
   66.1507   44.6602   -4.5689 H   0  0  0  0  0  0  0  0  0  0  0  0
  1  2  1  0
  2  3  1  0
  3  4  2  0
  4  5  1  0
  5  6  1  0
  6  7  1  0
  7  8  1  0
  8  9  2  0
  9 10  1  0
 10 11  2  0
 11 12  1  0
 12 13  1  0
 12 14  2  0
 14 15  1  0
 15 16  2  0
 15 17  1  0
 17 18  1  0
  5 19  2  0
 19 20  1  0
 20 21  2  0
 21 22  1  0
 22 23  1  0
 23 24  1  0
 24 25  1  0
 25 26  1  0
 25 27  1  0
 27 28  1  0
 21  3  1  0
 28 22  1  0
 17  6  2  0
 14  8  1  0
  1 29  1  0
  1 30  1  0
  1 31  1  0
  2 32  1  0
  2 33  1  0
  4 34  1  0
  9 35  1  0
 10 36  1  0
 11 37  1  0
 13 38  1  0
 18 39  1  0
 19 40  1  0
 20 41  1  0
 23 42  1  0
 23 43  1  0
 24 44  1  0
 24 45  1  0
 25 46  1  0
 26 47  1  0
 26 48  1  0
 26 49  1  0
 27 50  1  0
 27 51  1  0
 28 52  1  0
 28 53  1  0
M  CHG  1  25   1
M  END
>  <meeko>  (8) 
{"is_sidechain": [false], "free_energy": -7.394, "intermolecular_energy": -9.453, "internal_energy": -0.279}

$$$$
cand_025_out
     RDKit          3D

 53 56  0  0  0  0  0  0  0  0999 V2000
   68.2150   43.8250   -5.5550 C   0  0  0  0  0  0  0  0  0  0  0  0
   69.6840   43.8240   -5.9520 C   0  0  0  0  0  0  0  0  0  0  0  0
   70.5910   43.5700   -4.7690 C   0  0  0  0  0  0  0  0  0  0  0  0
   70.3370   42.4510   -3.9500 C   0  0  0  0  0  0  0  0  0  0  0  0
   71.1320   42.1630   -2.8340 C   0  0  0  0  0  0  0  0  0  0  0  0
   70.8550   41.0050   -1.9580 C   0  0  0  0  0  0  0  0  0  0  0  0
   71.9800   40.2210   -1.7270 O   0  0  0  0  0  0  0  0  0  0  0  0
   71.8640   39.1130   -0.9280 C   0  0  0  0  0  0  0  0  0  0  0  0
   73.0210   38.3640   -0.7110 C   0  0  0  0  0  0  0  0  0  0  0  0
   72.9720   37.2220    0.0920 C   0  0  0  0  0  0  0  0  0  0  0  0
   71.7660   36.8300    0.6770 C   0  0  0  0  0  0  0  0  0  0  0  0
   70.6130   37.5790    0.4590 C   0  0  0  0  0  0  0  0  0  0  0  0
   69.4660   37.1380    1.0620 O   0  0  0  0  0  0  0  0  0  0  0  0
   70.6630   38.7210   -0.3440 C   0  0  0  0  0  0  0  0  0  0  0  0
   69.4740   39.5380   -0.5990 C   0  0  0  0  0  0  0  0  0  0  0  0
   68.3760   39.2520   -0.1250 O   0  0  0  0  0  0  0  0  0  0  0  0
   69.6350   40.7330   -1.4580 C   0  0  0  0  0  0  0  0  0  0  0  0
   68.5040   41.4880   -1.7020 O   0  0  0  0  0  0  0  0  0  0  0  0
   72.1870   43.0300   -2.5320 C   0  0  0  0  0  0  0  0  0  0  0  0
   72.4450   44.1480   -3.3310 C   0  0  0  0  0  0  0  0  0  0  0  0
   71.6540   44.4400   -4.4520 C   0  0  0  0  0  0  0  0  0  0  0  0
   71.9000   45.5580   -5.2720 N   0  0  0  0  0  0  0  0  0  0  0  0
   71.7790   46.8590   -4.5780 C   0  0  0  0  0  0  0  0  0  0  0  0
   71.9330   48.0110   -5.6000 C   0  0  0  0  0  0  0  0  0  0  0  0
   73.2180   47.9450   -6.3370 N   0  0  0  0  0  0  0  0  0  0  0  0
   73.2990   49.0160   -7.3270 C   0  0  0  0  0  0  0  0  0  0  0  0
   73.3340   46.6200   -6.9920 C   0  0  0  0  0  0  0  0  0  0  0  0
   73.1860   45.4450   -5.9960 C   0  0  0  0  0  0  0  0  0  0  0  0
   68.1316   43.8251   -4.4582 H   0  0  0  0  0  0  0  0  0  0  0  0
   67.7264   44.7235   -5.9599 H   0  0  0  0  0  0  0  0  0  0  0  0
   67.7251   42.9272   -5.9599 H   0  0  0  0  0  0  0  0  0  0  0  0
   69.8487   43.0357   -6.7013 H   0  0  0  0  0  0  0  0  0  0  0  0
   69.9264   44.8169   -6.3586 H   0  0  0  0  0  0  0  0  0  0  0  0
   69.4937   41.7880   -4.1936 H   0  0  0  0  0  0  0  0  0  0  0  0
   73.9710   38.6725   -1.1719 H   0  0  0  0  0  0  0  0  0  0  0  0
   73.8838   36.6312    0.2636 H   0  0  0  0  0  0  0  0  0  0  0  0
   71.7272   35.9306    1.3092 H   0  0  0  0  0  0  0  0  0  0  0  0
   68.6320   37.3330    0.6800 H   0  0  0  0  0  0  0  0  0  0  0  0
   68.5480   42.4240   -1.6690 H   0  0  0  0  0  0  0  0  0  0  0  0
   72.8211   42.8300   -1.6557 H   0  0  0  0  0  0  0  0  0  0  0  0
   73.2845   44.8114   -3.0756 H   0  0  0  0  0  0  0  0  0  0  0  0
   70.7921   46.9265   -4.0968 H   0  0  0  0  0  0  0  0  0  0  0  0
   72.5677   46.9402   -3.8156 H   0  0  0  0  0  0  0  0  0  0  0  0
   71.1071   47.9535   -6.3242 H   0  0  0  0  0  0  0  0  0  0  0  0
   71.9147   48.9589   -5.0421 H   0  0  0  0  0  0  0  0  0  0  0  0
   73.9900   48.0660   -5.6810 H   0  0  0  0  0  0  0  0  0  0  0  0
   73.3723   49.9857   -6.8129 H   0  0  0  0  0  0  0  0  0  0  0  0
   74.1884   48.8667   -7.9568 H   0  0  0  0  0  0  0  0  0  0  0  0
   72.3972   49.0021   -7.9568 H   0  0  0  0  0  0  0  0  0  0  0  0
   72.5468   46.5350   -7.7556 H   0  0  0  0  0  0  0  0  0  0  0  0
   74.3392   46.5554   -7.4341 H   0  0  0  0  0  0  0  0  0  0  0  0
   73.2117   44.4937   -6.5476 H   0  0  0  0  0  0  0  0  0  0  0  0
   74.0135   45.4772   -5.2720 H   0  0  0  0  0  0  0  0  0  0  0  0
  1  2  1  0
  2  3  1  0
  3  4  2  0
  4  5  1  0
  5  6  1  0
  6  7  1  0
  7  8  1  0
  8  9  2  0
  9 10  1  0
 10 11  2  0
 11 12  1  0
 12 13  1  0
 12 14  2  0
 14 15  1  0
 15 16  2  0
 15 17  1  0
 17 18  1  0
  5 19  2  0
 19 20  1  0
 20 21  2  0
 21 22  1  0
 22 23  1  0
 23 24  1  0
 24 25  1  0
 25 26  1  0
 25 27  1  0
 27 28  1  0
 21  3  1  0
 28 22  1  0
 17  6  2  0
 14  8  1  0
  1 29  1  0
  1 30  1  0
  1 31  1  0
  2 32  1  0
  2 33  1  0
  4 34  1  0
  9 35  1  0
 10 36  1  0
 11 37  1  0
 13 38  1  0
 18 39  1  0
 19 40  1  0
 20 41  1  0
 23 42  1  0
 23 43  1  0
 24 44  1  0
 24 45  1  0
 25 46  1  0
 26 47  1  0
 26 48  1  0
 26 49  1  0
 27 50  1  0
 27 51  1  0
 28 52  1  0
 28 53  1  0
M  CHG  1  25   1
M  END
>  <meeko>  (9) 
{"is_sidechain": [false], "free_energy": -7.378, "intermolecular_energy": -9.254, "internal_energy": -0.46}

$$$$
