cand_049_out
     RDKit          3D

 47 49  0  0  0  0  0  0  0  0999 V2000
   68.9650   41.8930   -1.9130 C   0  0  0  0  0  0  0  0  0  0  0  0
   70.1310   42.2620   -1.0060 C   0  0  0  0  0  0  0  0  0  0  0  0
   71.3450   41.4000   -1.2710 C   0  0  0  0  0  0  0  0  0  0  0  0
   72.2710   41.8470   -2.2360 C   0  0  0  0  0  0  0  0  0  0  0  0
   73.4470   41.1380   -2.5220 C   0  0  0  0  0  0  0  0  0  0  0  0
   74.3710   41.6340   -3.5640 C   0  0  0  0  0  0  0  0  0  0  0  0
   73.7210   41.9710   -4.7460 O   0  0  0  0  0  0  0  0  0  0  0  0
   74.4610   42.4460   -5.7980 C   0  0  0  0  0  0  0  0  0  0  0  0
   73.7700   42.7590   -6.9690 C   0  0  0  0  0  0  0  0  0  0  0  0
   74.4630   43.2490   -8.0780 C   0  0  0  0  0  0  0  0  0  0  0  0
   75.8470   43.4270   -8.0150 C   0  0  0  0  0  0  0  0  0  0  0  0
   76.5350   43.1140   -6.8460 C   0  0  0  0  0  0  0  0  0  0  0  0
   77.8880   43.3130   -6.8530 O   0  0  0  0  0  0  0  0  0  0  0  0
   75.8400   42.6230   -5.7370 C   0  0  0  0  0  0  0  0  0  0  0  0
   76.5240   42.2810   -4.4880 C   0  0  0  0  0  0  0  0  0  0  0  0
   77.7390   42.4170   -4.3540 O   0  0  0  0  0  0  0  0  0  0  0  0
   75.6980   41.7620   -3.3750 C   0  0  0  0  0  0  0  0  0  0  0  0
   76.3530   41.4560   -2.1960 O   0  0  0  0  0  0  0  0  0  0  0  0
   73.6880   39.9500   -1.8280 C   0  0  0  0  0  0  0  0  0  0  0  0
   72.7850   39.4940   -0.8640 C   0  0  0  0  0  0  0  0  0  0  0  0
   71.6080   40.2040   -0.5720 C   0  0  0  0  0  0  0  0  0  0  0  0
   70.6720   39.6400    0.4780 C   0  0  0  0  0  0  0  0  0  0  0  0
   69.9030   38.3840    0.0200 C   0  0  0  0  0  0  0  0  0  0  0  0
   70.2650   37.1480    0.8470 C   0  0  0  0  0  0  0  0  0  0  0  0
   68.3960   38.6400    0.1140 C   0  0  0  0  0  0  0  0  0  0  0  0
   68.0952   41.6177   -1.2984 H   0  0  0  0  0  0  0  0  0  0  0  0
   68.7077   42.7536   -2.5479 H   0  0  0  0  0  0  0  0  0  0  0  0
   69.2497   41.0410   -2.5479 H   0  0  0  0  0  0  0  0  0  0  0  0
   70.3975   43.3150   -1.1797 H   0  0  0  0  0  0  0  0  0  0  0  0
   69.8178   42.0994    0.0359 H   0  0  0  0  0  0  0  0  0  0  0  0
   72.0648   42.7800   -2.7810 H   0  0  0  0  0  0  0  0  0  0  0  0
   72.6800   42.6199   -7.0186 H   0  0  0  0  0  0  0  0  0  0  0  0
   73.9186   43.4949   -9.0017 H   0  0  0  0  0  0  0  0  0  0  0  0
   76.3927   43.8141   -8.8882 H   0  0  0  0  0  0  0  0  0  0  0  0
   78.4690   42.5790   -6.8080 H   0  0  0  0  0  0  0  0  0  0  0  0
   76.0850   40.7130   -1.6900 H   0  0  0  0  0  0  0  0  0  0  0  0
   74.5967   39.3683   -2.0422 H   0  0  0  0  0  0  0  0  0  0  0  0
   72.9998   38.5607   -0.3229 H   0  0  0  0  0  0  0  0  0  0  0  0
   71.2656   39.3779    1.3662 H   0  0  0  0  0  0  0  0  0  0  0  0
   69.9207   40.4161    0.6860 H   0  0  0  0  0  0  0  0  0  0  0  0
   70.1916   38.1822   -1.0221 H   0  0  0  0  0  0  0  0  0  0  0  0
   70.1942   37.3897    1.9178 H   0  0  0  0  0  0  0  0  0  0  0  0
   69.5685   36.3306    0.6088 H   0  0  0  0  0  0  0  0  0  0  0  0
   71.2924   36.8355    0.6088 H   0  0  0  0  0  0  0  0  0  0  0  0
   68.0980   38.6906    1.1716 H   0  0  0  0  0  0  0  0  0  0  0  0
   68.1542   39.5921   -0.3811 H   0  0  0  0  0  0  0  0  0  0  0  0
   67.8534   37.8212   -0.3811 H   0  0  0  0  0  0  0  0  0  0  0  0
  1  2  1  0
  2  3  1  0
  3  4  2  0
  4  5  1  0
  5  6  1  0
  6  7  1  0
  7  8  1  0
  8  9  2  0
  9 10  1  0
 10 11  2  0
 11 12  1  0
 12 13  1  0
 12 14  2  0
 14 15  1  0
 15 16  2  0
 15 17  1  0
 17 18  1  0
  5 19  2  0
 19 20  1  0
 20 21  2  0
 21 22  1  0
 22 23  1  0
 23 24  1  0
 23 25  1  0
 21  3  1  0
 17  6  2  0
 14  8  1  0
  1 26  1  0
  1 27  1  0
  1 28  1  0
  2 29  1  0
  2 30  1  0
  4 31  1  0
  9 32  1  0
 10 33  1  0
 11 34  1  0
 13 35  1  0
 18 36  1  0
 19 37  1  0
 20 38  1  0
 22 39  1  0
 22 40  1  0
 23 41  1  0
 24 42  1  0
 24 43  1  0
 24 44  1  0
 25 45  1  0
 25 46  1  0
 25 47  1  0
M  END
>  <meeko>  (1) 
{"is_sidechain": [false], "free_energy": -7.92, "intermolecular_energy": -10.235, "internal_energy": -0.799}

$$$$
cand_049_out
     RDKit          3D

 47 49  0  0  0  0  0  0  0  0999 V2000
   76.3040   42.7430   -1.7870 C   0  0  0  0  0  0  0  0  0  0  0  0
   75.5920   43.6070   -2.8190 C   0  0  0  0  0  0  0  0  0  0  0  0
   74.4390   42.8730   -3.4670 C   0  0  0  0  0  0  0  0  0  0  0  0
   73.6250   42.0680   -2.6430 C   0  0  0  0  0  0  0  0  0  0  0  0
   72.5090   41.3810   -3.1440 C   0  0  0  0  0  0  0  0  0  0  0  0
   71.7060   40.5260   -2.2440 C   0  0  0  0  0  0  0  0  0  0  0  0
   72.4520   39.5120   -1.6550 O   0  0  0  0  0  0  0  0  0  0  0  0
   71.8290   38.6430   -0.7960 C   0  0  0  0  0  0  0  0  0  0  0  0
   72.6130   37.6330   -0.2380 C   0  0  0  0  0  0  0  0  0  0  0  0
   72.0420   36.7150    0.6460 C   0  0  0  0  0  0  0  0  0  0  0  0
   70.6880   36.8090    0.9740 C   0  0  0  0  0  0  0  0  0  0  0  0
   69.9070   37.8190    0.4160 C   0  0  0  0  0  0  0  0  0  0  0  0
   68.5900   37.8540    0.7800 O   0  0  0  0  0  0  0  0  0  0  0  0
   70.4800   38.7360   -0.4690 C   0  0  0  0  0  0  0  0  0  0  0  0
   69.6960   39.8120   -1.0780 C   0  0  0  0  0  0  0  0  0  0  0  0
   68.5010   39.9640   -0.8340 O   0  0  0  0  0  0  0  0  0  0  0  0
   70.3960   40.7270   -2.0090 C   0  0  0  0  0  0  0  0  0  0  0  0
   69.6480   41.7480   -2.5670 O   0  0  0  0  0  0  0  0  0  0  0  0
   72.2140   41.5020   -4.5040 C   0  0  0  0  0  0  0  0  0  0  0  0
   73.0050   42.3000   -5.3350 C   0  0  0  0  0  0  0  0  0  0  0  0
   74.1210   42.9920   -4.8350 C   0  0  0  0  0  0  0  0  0  0  0  0
   74.9370   43.8280   -5.8010 C   0  0  0  0  0  0  0  0  0  0  0  0
   75.5000   43.0330   -6.9960 C   0  0  0  0  0  0  0  0  0  0  0  0
   75.8120   43.9310   -8.1960 C   0  0  0  0  0  0  0  0  0  0  0  0
   76.7680   42.2880   -6.5690 C   0  0  0  0  0  0  0  0  0  0  0  0
   76.0284   43.0774   -0.7759 H   0  0  0  0  0  0  0  0  0  0  0  0
   76.0058   41.6925   -1.9198 H   0  0  0  0  0  0  0  0  0  0  0  0
   77.3921   42.8349   -1.9198 H   0  0  0  0  0  0  0  0  0  0  0  0
   75.2056   44.5092   -2.3224 H   0  0  0  0  0  0  0  0  0  0  0  0
   76.3162   43.8676   -3.6048 H   0  0  0  0  0  0  0  0  0  0  0  0
   73.8727   41.9761   -1.5752 H   0  0  0  0  0  0  0  0  0  0  0  0
   73.6802   37.5597   -0.4942 H   0  0  0  0  0  0  0  0  0  0  0  0
   72.6595   35.9171    1.0843 H   0  0  0  0  0  0  0  0  0  0  0  0
   70.2387   36.0869    1.6717 H   0  0  0  0  0  0  0  0  0  0  0  0
   68.0430   38.5600    0.4950 H   0  0  0  0  0  0  0  0  0  0  0  0
   69.3880   41.7010   -3.4670 H   0  0  0  0  0  0  0  0  0  0  0  0
   71.3514   40.9644   -4.9246 H   0  0  0  0  0  0  0  0  0  0  0  0
   72.7490   42.3881   -6.4012 H   0  0  0  0  0  0  0  0  0  0  0  0
   74.2948   44.6312   -6.1914 H   0  0  0  0  0  0  0  0  0  0  0  0
   75.8007   44.2125   -5.2387 H   0  0  0  0  0  0  0  0  0  0  0  0
   74.7255   42.3177   -7.3098 H   0  0  0  0  0  0  0  0  0  0  0  0
   76.1535   44.9140   -7.8394 H   0  0  0  0  0  0  0  0  0  0  0  0
   76.6017   43.4674   -8.8054 H   0  0  0  0  0  0  0  0  0  0  0  0
   74.9049   44.0569   -8.8054 H   0  0  0  0  0  0  0  0  0  0  0  0
   76.8223   42.2561   -5.4708 H   0  0  0  0  0  0  0  0  0  0  0  0
   76.7413   41.2620   -6.9647 H   0  0  0  0  0  0  0  0  0  0  0  0
   77.6512   42.8108   -6.9647 H   0  0  0  0  0  0  0  0  0  0  0  0
  1  2  1  0
  2  3  1  0
  3  4  2  0
  4  5  1  0
  5  6  1  0
  6  7  1  0
  7  8  1  0
  8  9  2  0
  9 10  1  0
 10 11  2  0
 11 12  1  0
 12 13  1  0
 12 14  2  0
 14 15  1  0
 15 16  2  0
 15 17  1  0
 17 18  1  0
  5 19  2  0
 19 20  1  0
 20 21  2  0
 21 22  1  0
 22 23  1  0
 23 24  1  0
 23 25  1  0
 21  3  1  0
 17  6  2  0
 14  8  1  0
  1 26  1  0
  1 27  1  0
  1 28  1  0
  2 29  1  0
  2 30  1  0
  4 31  1  0
  9 32  1  0
 10 33  1  0
 11 34  1  0
 13 35  1  0
 18 36  1  0
 19 37  1  0
 20 38  1  0
 22 39  1  0
 22 40  1  0
 23 41  1  0
 24 42  1  0
 24 43  1  0
 24 44  1  0
 25 45  1  0
 25 46  1  0
 25 47  1  0
M  END
>  <meeko>  (2) 
{"is_sidechain": [false], "free_energy": -7.78, "intermolecular_energy": -10.018, "internal_energy": -0.835}

$$$$
cand_049_out
     RDKit          3D

 47 49  0  0  0  0  0  0  0  0999 V2000
   76.7770   42.8530   -2.1870 C   0  0  0  0  0  0  0  0  0  0  0  0
   75.6650   43.7270   -2.7500 C   0  0  0  0  0  0  0  0  0  0  0  0
   74.5830   42.9030   -3.4130 C   0  0  0  0  0  0  0  0  0  0  0  0
   73.7800   42.0870   -2.5900 C   0  0  0  0  0  0  0  0  0  0  0  0
   72.7270   41.3180   -3.1060 C   0  0  0  0  0  0  0  0  0  0  0  0
   71.9330   40.4550   -2.2050 C   0  0  0  0  0  0  0  0  0  0  0  0
   70.5750   40.7490   -2.2330 O   0  0  0  0  0  0  0  0  0  0  0  0
   69.7220   40.0220   -1.4430 C   0  0  0  0  0  0  0  0  0  0  0  0
   68.3690   40.3610   -1.4930 C   0  0  0  0  0  0  0  0  0  0  0  0
   67.4460   39.6590   -0.7140 C   0  0  0  0  0  0  0  0  0  0  0  0
   67.8760   38.6190    0.1130 C   0  0  0  0  0  0  0  0  0  0  0  0
   69.2260   38.2830    0.1610 C   0  0  0  0  0  0  0  0  0  0  0  0
   69.5780   37.2550    0.9910 O   0  0  0  0  0  0  0  0  0  0  0  0
   70.1490   38.9860   -0.6180 C   0  0  0  0  0  0  0  0  0  0  0  0
   71.5780   38.6660   -0.5980 C   0  0  0  0  0  0  0  0  0  0  0  0
   72.0310   37.7600    0.0980 O   0  0  0  0  0  0  0  0  0  0  0  0
   72.4730   39.4760   -1.4550 C   0  0  0  0  0  0  0  0  0  0  0  0
   73.8190   39.1550   -1.4380 O   0  0  0  0  0  0  0  0  0  0  0  0
   72.4850   41.3670   -4.4810 C   0  0  0  0  0  0  0  0  0  0  0  0
   73.2660   42.1750   -5.3120 C   0  0  0  0  0  0  0  0  0  0  0  0
   74.3190   42.9490   -4.7970 C   0  0  0  0  0  0  0  0  0  0  0  0
   75.1280   43.7910   -5.7620 C   0  0  0  0  0  0  0  0  0  0  0  0
   75.8790   42.9700   -6.8310 C   0  0  0  0  0  0  0  0  0  0  0  0
   76.2520   43.8120   -8.0540 C   0  0  0  0  0  0  0  0  0  0  0  0
   77.1460   42.3650   -6.2190 C   0  0  0  0  0  0  0  0  0  0  0  0
   76.7433   42.8795   -1.0878 H   0  0  0  0  0  0  0  0  0  0  0  0
   76.6406   41.8178   -2.5332 H   0  0  0  0  0  0  0  0  0  0  0  0
   77.7506   43.2301   -2.5332 H   0  0  0  0  0  0  0  0  0  0  0  0
   75.2180   44.3070   -1.9292 H   0  0  0  0  0  0  0  0  0  0  0  0
   76.1035   44.3902   -3.5102 H   0  0  0  0  0  0  0  0  0  0  0  0
   73.9859   42.0526   -1.5100 H   0  0  0  0  0  0  0  0  0  0  0  0
   68.0300   41.1797   -2.1448 H   0  0  0  0  0  0  0  0  0  0  0  0
   66.3795   39.9256   -0.7520 H   0  0  0  0  0  0  0  0  0  0  0  0
   67.1488   38.0660    0.7257 H   0  0  0  0  0  0  0  0  0  0  0  0
   70.4590   36.9320    0.9900 H   0  0  0  0  0  0  0  0  0  0  0  0
   74.1900   38.7310   -0.6890 H   0  0  0  0  0  0  0  0  0  0  0  0
   71.6727   40.7644   -4.9134 H   0  0  0  0  0  0  0  0  0  0  0  0
   73.0519   42.2054   -6.3905 H   0  0  0  0  0  0  0  0  0  0  0  0
   74.4441   44.4836   -6.2745 H   0  0  0  0  0  0  0  0  0  0  0  0
   75.8912   44.3138   -5.1669 H   0  0  0  0  0  0  0  0  0  0  0  0
   75.2015   42.1731   -7.1715 H   0  0  0  0  0  0  0  0  0  0  0  0
   76.6769   44.7711   -7.7231 H   0  0  0  0  0  0  0  0  0  0  0  0
   76.9947   43.2711   -8.6588 H   0  0  0  0  0  0  0  0  0  0  0  0
   75.3524   43.9987   -8.6588 H   0  0  0  0  0  0  0  0  0  0  0  0
   77.0754   42.3987   -5.1218 H   0  0  0  0  0  0  0  0  0  0  0  0
   77.2493   41.3204   -6.5478 H   0  0  0  0  0  0  0  0  0  0  0  0
   78.0233   42.9414   -6.5478 H   0  0  0  0  0  0  0  0  0  0  0  0
  1  2  1  0
  2  3  1  0
  3  4  2  0
  4  5  1  0
  5  6  1  0
  6  7  1  0
  7  8  1  0
  8  9  2  0
  9 10  1  0
 10 11  2  0
 11 12  1  0
 12 13  1  0
 12 14  2  0
 14 15  1  0
 15 16  2  0
 15 17  1  0
 17 18  1  0
  5 19  2  0
 19 20  1  0
 20 21  2  0
 21 22  1  0
 22 23  1  0
 23 24  1  0
 23 25  1  0
 21  3  1  0
 17  6  2  0
 14  8  1  0
  1 26  1  0
  1 27  1  0
  1 28  1  0
  2 29  1  0
  2 30  1  0
  4 31  1  0
  9 32  1  0
 10 33  1  0
 11 34  1  0
 13 35  1  0
 18 36  1  0
 19 37  1  0
 20 38  1  0
 22 39  1  0
 22 40  1  0
 23 41  1  0
 24 42  1  0
 24 43  1  0
 24 44  1  0
 25 45  1  0
 25 46  1  0
 25 47  1  0
M  END
>  <meeko>  (3) 
{"is_sidechain": [false], "free_energy": -7.571, "intermolecular_energy": -9.729, "internal_energy": -0.854}

$$$$
cand_049_out
     RDKit          3D

 47 49  0  0  0  0  0  0  0  0999 V2000
   72.9670   38.0870    0.0770 C   0  0  0  0  0  0  0  0  0  0  0  0
   72.3220   38.2960   -1.2870 C   0  0  0  0  0  0  0  0  0  0  0  0
   72.3270   39.7530   -1.6940 C   0  0  0  0  0  0  0  0  0  0  0  0
   73.3100   40.1770   -2.6120 C   0  0  0  0  0  0  0  0  0  0  0  0
   73.3700   41.4970   -3.0800 C   0  0  0  0  0  0  0  0  0  0  0  0
   74.4390   41.8980   -4.0200 C   0  0  0  0  0  0  0  0  0  0  0  0
   73.9450   42.3880   -5.2230 O   0  0  0  0  0  0  0  0  0  0  0  0
   74.8300   42.7960   -6.1870 C   0  0  0  0  0  0  0  0  0  0  0  0
   74.2900   43.2670   -7.3850 C   0  0  0  0  0  0  0  0  0  0  0  0
   75.1360   43.7010   -8.4080 C   0  0  0  0  0  0  0  0  0  0  0  0
   76.5210   43.6640   -8.2330 C   0  0  0  0  0  0  0  0  0  0  0  0
   77.0570   43.1950   -7.0370 C   0  0  0  0  0  0  0  0  0  0  0  0
   78.4210   43.1870   -6.9330 O   0  0  0  0  0  0  0  0  0  0  0  0
   76.2100   42.7600   -6.0140 C   0  0  0  0  0  0  0  0  0  0  0  0
   76.7320   42.2590   -4.7420 C   0  0  0  0  0  0  0  0  0  0  0  0
   77.9380   42.2030   -4.5100 O   0  0  0  0  0  0  0  0  0  0  0  0
   75.7500   41.8160   -3.7250 C   0  0  0  0  0  0  0  0  0  0  0  0
   76.2550   41.3570   -2.5220 O   0  0  0  0  0  0  0  0  0  0  0  0
   72.4260   42.4100   -2.6050 C   0  0  0  0  0  0  0  0  0  0  0  0
   71.4410   42.0080   -1.7000 C   0  0  0  0  0  0  0  0  0  0  0  0
   71.3760   40.6850   -1.2320 C   0  0  0  0  0  0  0  0  0  0  0  0
   70.2850   40.3270   -0.2420 C   0  0  0  0  0  0  0  0  0  0  0  0
   69.0980   39.5670   -0.8670 C   0  0  0  0  0  0  0  0  0  0  0  0
   68.3490   38.7140    0.1600 C   0  0  0  0  0  0  0  0  0  0  0  0
   68.1280   40.5630   -1.5100 C   0  0  0  0  0  0  0  0  0  0  0  0
   72.2388   38.3230    0.8670 H   0  0  0  0  0  0  0  0  0  0  0  0
   73.2871   37.0391    0.1745 H   0  0  0  0  0  0  0  0  0  0  0  0
   73.8409   38.7480    0.1745 H   0  0  0  0  0  0  0  0  0  0  0  0
   72.8789   37.7150   -2.0369 H   0  0  0  0  0  0  0  0  0  0  0  0
   71.2757   37.9621   -1.2250 H   0  0  0  0  0  0  0  0  0  0  0  0
   74.0525   39.4495   -2.9719 H   0  0  0  0  0  0  0  0  0  0  0  0
   73.1991   43.2963   -7.5232 H   0  0  0  0  0  0  0  0  0  0  0  0
   74.7111   44.0722   -9.3523 H   0  0  0  0  0  0  0  0  0  0  0  0
   77.1874   44.0050   -9.0390 H   0  0  0  0  0  0  0  0  0  0  0  0
   78.9200   42.5190   -7.3620 H   0  0  0  0  0  0  0  0  0  0  0  0
   75.8590   41.6250   -1.7150 H   0  0  0  0  0  0  0  0  0  0  0  0
   72.4585   43.4551   -2.9467 H   0  0  0  0  0  0  0  0  0  0  0  0
   70.7016   42.7418   -1.3467 H   0  0  0  0  0  0  0  0  0  0  0  0
   70.7246   39.6959    0.5444 H   0  0  0  0  0  0  0  0  0  0  0  0
   69.8864   41.2744    0.1498 H   0  0  0  0  0  0  0  0  0  0  0  0
   69.5072   38.8871   -1.6288 H   0  0  0  0  0  0  0  0  0  0  0  0
   68.6287   39.0325    1.1751 H   0  0  0  0  0  0  0  0  0  0  0  0
   67.2652   38.8409    0.0215 H   0  0  0  0  0  0  0  0  0  0  0  0
   68.6149   37.6557    0.0215 H   0  0  0  0  0  0  0  0  0  0  0  0
   67.5921   41.1133   -0.7226 H   0  0  0  0  0  0  0  0  0  0  0  0
   68.6911   41.2721   -2.1346 H   0  0  0  0  0  0  0  0  0  0  0  0
   67.4042   40.0188   -2.1346 H   0  0  0  0  0  0  0  0  0  0  0  0
  1  2  1  0
  2  3  1  0
  3  4  2  0
  4  5  1  0
  5  6  1  0
  6  7  1  0
  7  8  1  0
  8  9  2  0
  9 10  1  0
 10 11  2  0
 11 12  1  0
 12 13  1  0
 12 14  2  0
 14 15  1  0
 15 16  2  0
 15 17  1  0
 17 18  1  0
  5 19  2  0
 19 20  1  0
 20 21  2  0
 21 22  1  0
 22 23  1  0
 23 24  1  0
 23 25  1  0
 21  3  1  0
 17  6  2  0
 14  8  1  0
  1 26  1  0
  1 27  1  0
  1 28  1  0
  2 29  1  0
  2 30  1  0
  4 31  1  0
  9 32  1  0
 10 33  1  0
 11 34  1  0
 13 35  1  0
 18 36  1  0
 19 37  1  0
 20 38  1  0
 22 39  1  0
 22 40  1  0
 23 41  1  0
 24 42  1  0
 24 43  1  0
 24 44  1  0
 25 45  1  0
 25 46  1  0
 25 47  1  0
M  END
>  <meeko>  (4) 
{"is_sidechain": [false], "free_energy": -7.523, "intermolecular_energy": -9.885, "internal_energy": -0.636}

$$$$
cand_049_out
     RDKit          3D

 47 49  0  0  0  0  0  0  0  0999 V2000
   69.6350   43.0390   -1.0050 C   0  0  0  0  0  0  0  0  0  0  0  0
   69.9380   41.6300   -0.5130 C   0  0  0  0  0  0  0  0  0  0  0  0
   71.2540   41.1170   -1.0530 C   0  0  0  0  0  0  0  0  0  0  0  0
   71.8220   41.7920   -2.1530 C   0  0  0  0  0  0  0  0  0  0  0  0
   73.0580   41.4160   -2.6990 C   0  0  0  0  0  0  0  0  0  0  0  0
   73.5960   42.1380   -3.8720 C   0  0  0  0  0  0  0  0  0  0  0  0
   74.4680   43.1630   -3.5210 O   0  0  0  0  0  0  0  0  0  0  0  0
   75.0420   43.9150   -4.5140 C   0  0  0  0  0  0  0  0  0  0  0  0
   75.8990   44.9410   -4.1160 C   0  0  0  0  0  0  0  0  0  0  0  0
   76.5180   45.7440   -5.0770 C   0  0  0  0  0  0  0  0  0  0  0  0
   76.2790   45.5200   -6.4350 C   0  0  0  0  0  0  0  0  0  0  0  0
   75.4230   44.4950   -6.8290 C   0  0  0  0  0  0  0  0  0  0  0  0
   75.2350   44.3300   -8.1740 O   0  0  0  0  0  0  0  0  0  0  0  0
   74.8040   43.6930   -5.8670 C   0  0  0  0  0  0  0  0  0  0  0  0
   73.8970   42.6050   -6.2380 C   0  0  0  0  0  0  0  0  0  0  0  0
   73.6440   42.3410   -7.4120 O   0  0  0  0  0  0  0  0  0  0  0  0
   73.2870   41.8180   -5.1420 C   0  0  0  0  0  0  0  0  0  0  0  0
   72.4430   40.7840   -5.5050 O   0  0  0  0  0  0  0  0  0  0  0  0
   73.7290   40.3320   -2.1290 C   0  0  0  0  0  0  0  0  0  0  0  0
   73.1850   39.6540   -1.0360 C   0  0  0  0  0  0  0  0  0  0  0  0
   71.9490   40.0310   -0.4840 C   0  0  0  0  0  0  0  0  0  0  0  0
   71.4190   39.2390    0.6940 C   0  0  0  0  0  0  0  0  0  0  0  0
   70.5810   38.0070    0.2950 C   0  0  0  0  0  0  0  0  0  0  0  0
   70.8540   36.8020    1.1990 C   0  0  0  0  0  0  0  0  0  0  0  0
   69.0910   38.3580    0.3450 C   0  0  0  0  0  0  0  0  0  0  0  0
   69.4916   43.7058   -0.1420 H   0  0  0  0  0  0  0  0  0  0  0  0
   70.4753   43.4033   -1.6142 H   0  0  0  0  0  0  0  0  0  0  0  0
   68.7192   43.0256   -1.6142 H   0  0  0  0  0  0  0  0  0  0  0  0
   69.9834   41.6388    0.5860 H   0  0  0  0  0  0  0  0  0  0  0  0
   69.1390   40.9640   -0.8707 H   0  0  0  0  0  0  0  0  0  0  0  0
   71.2790   42.6396   -2.5966 H   0  0  0  0  0  0  0  0  0  0  0  0
   76.0872   45.1176   -3.0467 H   0  0  0  0  0  0  0  0  0  0  0  0
   77.1941   46.5533   -4.7641 H   0  0  0  0  0  0  0  0  0  0  0  0
   76.7663   46.1523   -7.1918 H   0  0  0  0  0  0  0  0  0  0  0  0
   75.4780   45.0130   -8.7680 H   0  0  0  0  0  0  0  0  0  0  0  0
   72.2850   40.6040   -6.4120 H   0  0  0  0  0  0  0  0  0  0  0  0
   74.6949   40.0092   -2.5448 H   0  0  0  0  0  0  0  0  0  0  0  0
   73.7351   38.8079   -0.5984 H   0  0  0  0  0  0  0  0  0  0  0  0
   72.2751   38.8957    1.2934 H   0  0  0  0  0  0  0  0  0  0  0  0
   70.7516   39.9101    1.2546 H   0  0  0  0  0  0  0  0  0  0  0  0
   70.8725   37.7276   -0.7282 H   0  0  0  0  0  0  0  0  0  0  0  0
   70.7841   37.1107    2.2525 H   0  0  0  0  0  0  0  0  0  0  0  0
   70.1111   36.0163    0.9970 H   0  0  0  0  0  0  0  0  0  0  0  0
   71.8630   36.4132    0.9970 H   0  0  0  0  0  0  0  0  0  0  0  0
   68.7673   38.4343    1.3935 H   0  0  0  0  0  0  0  0  0  0  0  0
   68.9238   39.3201   -0.1613 H   0  0  0  0  0  0  0  0  0  0  0  0
   68.5119   37.5717   -0.1613 H   0  0  0  0  0  0  0  0  0  0  0  0
  1  2  1  0
  2  3  1  0
  3  4  2  0
  4  5  1  0
  5  6  1  0
  6  7  1  0
  7  8  1  0
  8  9  2  0
  9 10  1  0
 10 11  2  0
 11 12  1  0
 12 13  1  0
 12 14  2  0
 14 15  1  0
 15 16  2  0
 15 17  1  0
 17 18  1  0
  5 19  2  0
 19 20  1  0
 20 21  2  0
 21 22  1  0
 22 23  1  0
 23 24  1  0
 23 25  1  0
 21  3  1  0
 17  6  2  0
 14  8  1  0
  1 26  1  0
  1 27  1  0
  1 28  1  0
  2 29  1  0
  2 30  1  0
  4 31  1  0
  9 32  1  0
 10 33  1  0
 11 34  1  0
 13 35  1  0
 18 36  1  0
 19 37  1  0
 20 38  1  0
 22 39  1  0
 22 40  1  0
 23 41  1  0
 24 42  1  0
 24 43  1  0
 24 44  1  0
 25 45  1  0
 25 46  1  0
 25 47  1  0
M  END
>  <meeko>  (5) 
{"is_sidechain": [false], "free_energy": -7.487, "intermolecular_energy": -9.615, "internal_energy": -0.859}

$$$$
cand_049_out
     RDKit          3D

 47 49  0  0  0  0  0  0  0  0999 V2000
   76.1090   45.0100   -3.1910 C   0  0  0  0  0  0  0  0  0  0  0  0
   74.6200   45.3110   -3.2920 C   0  0  0  0  0  0  0  0  0  0  0  0
   73.8440   44.1370   -3.8480 C   0  0  0  0  0  0  0  0  0  0  0  0
   73.4480   43.1250   -2.9490 C   0  0  0  0  0  0  0  0  0  0  0  0
   72.6920   42.0190   -3.3610 C   0  0  0  0  0  0  0  0  0  0  0  0
   72.3260   40.9700   -2.3850 C   0  0  0  0  0  0  0  0  0  0  0  0
   70.9590   40.9110   -2.1420 O   0  0  0  0  0  0  0  0  0  0  0  0
   70.4820   39.9810   -1.2550 C   0  0  0  0  0  0  0  0  0  0  0  0
   69.1050   39.9660   -1.0320 C   0  0  0  0  0  0  0  0  0  0  0  0
   68.5530   39.0430   -0.1410 C   0  0  0  0  0  0  0  0  0  0  0  0
   69.3780   38.1340    0.5250 C   0  0  0  0  0  0  0  0  0  0  0  0
   70.7520   38.1500    0.3000 C   0  0  0  0  0  0  0  0  0  0  0  0
   71.5000   37.2320    0.9840 O   0  0  0  0  0  0  0  0  0  0  0  0
   71.3030   39.0750   -0.5910 C   0  0  0  0  0  0  0  0  0  0  0  0
   72.7420   39.1260   -0.8560 C   0  0  0  0  0  0  0  0  0  0  0  0
   73.5310   38.3550   -0.3150 O   0  0  0  0  0  0  0  0  0  0  0  0
   73.2260   40.1490   -1.8120 C   0  0  0  0  0  0  0  0  0  0  0  0
   74.5860   40.1790   -2.0650 O   0  0  0  0  0  0  0  0  0  0  0  0
   72.3370   41.9260   -4.7090 C   0  0  0  0  0  0  0  0  0  0  0  0
   72.7160   42.9210   -5.6140 C   0  0  0  0  0  0  0  0  0  0  0  0
   73.4700   44.0330   -5.2020 C   0  0  0  0  0  0  0  0  0  0  0  0
   73.8520   45.0650   -6.2440 C   0  0  0  0  0  0  0  0  0  0  0  0
   74.7070   44.5020   -7.3980 C   0  0  0  0  0  0  0  0  0  0  0  0
   74.7990   45.4720   -8.5790 C   0  0  0  0  0  0  0  0  0  0  0  0
   76.1150   44.1810   -6.8880 C   0  0  0  0  0  0  0  0  0  0  0  0
   76.4002   44.9511   -2.1319 H   0  0  0  0  0  0  0  0  0  0  0  0
   76.3234   44.0504   -3.6841 H   0  0  0  0  0  0  0  0  0  0  0  0
   76.6793   45.8110   -3.6841 H   0  0  0  0  0  0  0  0  0  0  0  0
   74.2362   45.5481   -2.2888 H   0  0  0  0  0  0  0  0  0  0  0  0
   74.4896   46.1614   -3.9774 H   0  0  0  0  0  0  0  0  0  0  0  0
   73.7415   43.2062   -1.8920 H   0  0  0  0  0  0  0  0  0  0  0  0
   68.4545   40.6806   -1.5575 H   0  0  0  0  0  0  0  0  0  0  0  0
   67.4675   39.0320    0.0364 H   0  0  0  0  0  0  0  0  0  0  0  0
   68.9430   37.4066    1.2262 H   0  0  0  0  0  0  0  0  0  0  0  0
   72.0420   36.6270    0.5160 H   0  0  0  0  0  0  0  0  0  0  0  0
   75.1820   39.7690   -1.4690 H   0  0  0  0  0  0  0  0  0  0  0  0
   71.7541   41.0621   -5.0610 H   0  0  0  0  0  0  0  0  0  0  0  0
   72.4184   42.8321   -6.6692 H   0  0  0  0  0  0  0  0  0  0  0  0
   72.9289   45.4850   -6.6700 H   0  0  0  0  0  0  0  0  0  0  0  0
   74.4646   45.8225   -5.7332 H   0  0  0  0  0  0  0  0  0  0  0  0
   74.2138   43.5868   -7.7573 H   0  0  0  0  0  0  0  0  0  0  0  0
   74.8966   46.5007   -8.2018 H   0  0  0  0  0  0  0  0  0  0  0  0
   75.6774   45.2213   -9.1918 H   0  0  0  0  0  0  0  0  0  0  0  0
   73.8891   45.3909   -9.1918 H   0  0  0  0  0  0  0  0  0  0  0  0
   76.1154   44.1809   -5.7880 H   0  0  0  0  0  0  0  0  0  0  0  0
   76.4208   43.1901   -7.2549 H   0  0  0  0  0  0  0  0  0  0  0  0
   76.8201   44.9414   -7.2549 H   0  0  0  0  0  0  0  0  0  0  0  0
  1  2  1  0
  2  3  1  0
  3  4  2  0
  4  5  1  0
  5  6  1  0
  6  7  1  0
  7  8  1  0
  8  9  2  0
  9 10  1  0
 10 11  2  0
 11 12  1  0
 12 13  1  0
 12 14  2  0
 14 15  1  0
 15 16  2  0
 15 17  1  0
 17 18  1  0
  5 19  2  0
 19 20  1  0
 20 21  2  0
 21 22  1  0
 22 23  1  0
 23 24  1  0
 23 25  1  0
 21  3  1  0
 17  6  2  0
 14  8  1  0
  1 26  1  0
  1 27  1  0
  1 28  1  0
  2 29  1  0
  2 30  1  0
  4 31  1  0
  9 32  1  0
 10 33  1  0
 11 34  1  0
 13 35  1  0
 18 36  1  0
 19 37  1  0
 20 38  1  0
 22 39  1  0
 22 40  1  0
 23 41  1  0
 24 42  1  0
 24 43  1  0
 24 44  1  0
 25 45  1  0
 25 46  1  0
 25 47  1  0
M  END
>  <meeko>  (6) 
{"is_sidechain": [false], "free_energy": -7.358, "intermolecular_energy": -9.336, "internal_energy": -0.972}

$$$$
cand_049_out
     RDKit          3D

 47 49  0  0  0  0  0  0  0  0999 V2000
   72.6020   38.2510   -2.8790 C   0  0  0  0  0  0  0  0  0  0  0  0
   73.1040   39.4680   -2.1140 C   0  0  0  0  0  0  0  0  0  0  0  0
   71.9810   40.4230   -1.7760 C   0  0  0  0  0  0  0  0  0  0  0  0
   71.4860   41.2480   -2.8070 C   0  0  0  0  0  0  0  0  0  0  0  0
   70.4200   42.1350   -2.6020 C   0  0  0  0  0  0  0  0  0  0  0  0
   69.9570   43.0010   -3.7080 C   0  0  0  0  0  0  0  0  0  0  0  0
   70.8290   44.0520   -3.9720 O   0  0  0  0  0  0  0  0  0  0  0  0
   70.5210   44.9330   -4.9760 C   0  0  0  0  0  0  0  0  0  0  0  0
   71.4160   45.9800   -5.1960 C   0  0  0  0  0  0  0  0  0  0  0  0
   71.1630   46.9120   -6.2050 C   0  0  0  0  0  0  0  0  0  0  0  0
   70.0160   46.7970   -6.9930 C   0  0  0  0  0  0  0  0  0  0  0  0
   69.1240   45.7510   -6.7720 C   0  0  0  0  0  0  0  0  0  0  0  0
   68.0220   45.6960   -7.5790 O   0  0  0  0  0  0  0  0  0  0  0  0
   69.3780   44.8190   -5.7610 C   0  0  0  0  0  0  0  0  0  0  0  0
   68.4660   43.7040   -5.4940 C   0  0  0  0  0  0  0  0  0  0  0  0
   67.4410   43.5320   -6.1500 O   0  0  0  0  0  0  0  0  0  0  0  0
   68.8230   42.7760   -4.3970 C   0  0  0  0  0  0  0  0  0  0  0  0
   67.9610   41.7190   -4.1630 O   0  0  0  0  0  0  0  0  0  0  0  0
   69.8480   42.1990   -1.3290 C   0  0  0  0  0  0  0  0  0  0  0  0
   70.3210   41.3850   -0.2960 C   0  0  0  0  0  0  0  0  0  0  0  0
   71.3860   40.4920   -0.5000 C   0  0  0  0  0  0  0  0  0  0  0  0
   71.8500   39.6500    0.6720 C   0  0  0  0  0  0  0  0  0  0  0  0
   71.0300   38.3610    0.8800 C   0  0  0  0  0  0  0  0  0  0  0  0
   69.7510   38.3440    0.0400 C   0  0  0  0  0  0  0  0  0  0  0  0
   71.8890   37.1410    0.5320 C   0  0  0  0  0  0  0  0  0  0  0  0
   72.2824   37.4762   -2.1665 H   0  0  0  0  0  0  0  0  0  0  0  0
   71.7502   38.5413   -3.5116 H   0  0  0  0  0  0  0  0  0  0  0  0
   73.4107   37.8563   -3.5116 H   0  0  0  0  0  0  0  0  0  0  0  0
   73.5775   39.1308   -1.1802 H   0  0  0  0  0  0  0  0  0  0  0  0
   73.8238   40.0001   -2.7534 H   0  0  0  0  0  0  0  0  0  0  0  0
   71.9506   41.1939   -3.8026 H   0  0  0  0  0  0  0  0  0  0  0  0
   72.3198   46.0715   -4.5757 H   0  0  0  0  0  0  0  0  0  0  0  0
   71.8684   47.7379   -6.3792 H   0  0  0  0  0  0  0  0  0  0  0  0
   69.8174   47.5317   -7.7872 H   0  0  0  0  0  0  0  0  0  0  0  0
   67.3650   46.3620   -7.5200 H   0  0  0  0  0  0  0  0  0  0  0  0
   68.1050   40.8950   -4.5860 H   0  0  0  0  0  0  0  0  0  0  0  0
   69.0185   42.8958   -1.1381 H   0  0  0  0  0  0  0  0  0  0  0  0
   69.8500   41.4448    0.6963 H   0  0  0  0  0  0  0  0  0  0  0  0
   72.8998   39.3688    0.5021 H   0  0  0  0  0  0  0  0  0  0  0  0
   71.7172   40.2618    1.5765 H   0  0  0  0  0  0  0  0  0  0  0  0
   70.7318   38.3277    1.9383 H   0  0  0  0  0  0  0  0  0  0  0  0
   68.8753   38.3324    0.7056 H   0  0  0  0  0  0  0  0  0  0  0  0
   69.7172   39.2418   -0.5947 H   0  0  0  0  0  0  0  0  0  0  0  0
   69.7411   37.4456   -0.5947 H   0  0  0  0  0  0  0  0  0  0  0  0
   72.2302   36.6564    1.4587 H   0  0  0  0  0  0  0  0  0  0  0  0
   71.2924   36.4283   -0.0563 H   0  0  0  0  0  0  0  0  0  0  0  0
   72.7611   37.4624   -0.0563 H   0  0  0  0  0  0  0  0  0  0  0  0
  1  2  1  0
  2  3  1  0
  3  4  2  0
  4  5  1  0
  5  6  1  0
  6  7  1  0
  7  8  1  0
  8  9  2  0
  9 10  1  0
 10 11  2  0
 11 12  1  0
 12 13  1  0
 12 14  2  0
 14 15  1  0
 15 16  2  0
 15 17  1  0
 17 18  1  0
  5 19  2  0
 19 20  1  0
 20 21  2  0
 21 22  1  0
 22 23  1  0
 23 24  1  0
 23 25  1  0
 21  3  1  0
 17  6  2  0
 14  8  1  0
  1 26  1  0
  1 27  1  0
  1 28  1  0
  2 29  1  0
  2 30  1  0
  4 31  1  0
  9 32  1  0
 10 33  1  0
 11 34  1  0
 13 35  1  0
 18 36  1  0
 19 37  1  0
 20 38  1  0
 22 39  1  0
 22 40  1  0
 23 41  1  0
 24 42  1  0
 24 43  1  0
 24 44  1  0
 25 45  1  0
 25 46  1  0
 25 47  1  0
M  END
>  <meeko>  (7) 
{"is_sidechain": [false], "free_energy": -7.283, "intermolecular_energy": -9.369, "internal_energy": -0.841}

$$$$
cand_049_out
     RDKit          3D

 47 49  0  0  0  0  0  0  0  0999 V2000
   66.6420   39.3540   -0.9470 C   0  0  0  0  0  0  0  0  0  0  0  0
   67.9290   38.9840   -0.2220 C   0  0  0  0  0  0  0  0  0  0  0  0
   69.1030   39.8080   -0.7030 C   0  0  0  0  0  0  0  0  0  0  0  0
   68.8700   40.7500   -1.7260 C   0  0  0  0  0  0  0  0  0  0  0  0
   69.8860   41.5870   -2.2100 C   0  0  0  0  0  0  0  0  0  0  0  0
   69.5970   42.5380   -3.3060 C   0  0  0  0  0  0  0  0  0  0  0  0
   70.5810   43.5100   -3.4500 O   0  0  0  0  0  0  0  0  0  0  0  0
   70.4380   44.4580   -4.4300 C   0  0  0  0  0  0  0  0  0  0  0  0
   71.4420   45.4220   -4.5300 C   0  0  0  0  0  0  0  0  0  0  0  0
   71.3590   46.4150   -5.5090 C   0  0  0  0  0  0  0  0  0  0  0  0
   70.2750   46.4430   -6.3870 C   0  0  0  0  0  0  0  0  0  0  0  0
   69.2750   45.4800   -6.2870 C   0  0  0  0  0  0  0  0  0  0  0  0
   68.2420   45.5650   -7.1790 O   0  0  0  0  0  0  0  0  0  0  0  0
   69.3580   44.4870   -5.3070 C   0  0  0  0  0  0  0  0  0  0  0  0
   68.3280   43.4550   -5.1650 C   0  0  0  0  0  0  0  0  0  0  0  0
   67.3480   43.4090   -5.9050 O   0  0  0  0  0  0  0  0  0  0  0  0
   68.5070   42.4520   -4.0900 C   0  0  0  0  0  0  0  0  0  0  0  0
   67.5350   41.4750   -3.9750 O   0  0  0  0  0  0  0  0  0  0  0  0
   71.1620   41.4660   -1.6580 C   0  0  0  0  0  0  0  0  0  0  0  0
   71.4110   40.5420   -0.6390 C   0  0  0  0  0  0  0  0  0  0  0  0
   70.3950   39.7040   -0.1490 C   0  0  0  0  0  0  0  0  0  0  0  0
   70.7450   38.7200    0.9490 C   0  0  0  0  0  0  0  0  0  0  0  0
   71.1010   37.3100    0.4350 C   0  0  0  0  0  0  0  0  0  0  0  0
   72.5790   37.1870    0.0560 C   0  0  0  0  0  0  0  0  0  0  0  0
   70.7580   36.2700    1.5050 C   0  0  0  0  0  0  0  0  0  0  0  0
   65.8576   39.5795   -0.2096 H   0  0  0  0  0  0  0  0  0  0  0  0
   66.8175   40.2381   -1.5776 H   0  0  0  0  0  0  0  0  0  0  0  0
   66.3212   38.5117   -1.5776 H   0  0  0  0  0  0  0  0  0  0  0  0
   67.7920   39.1551    0.8559 H   0  0  0  0  0  0  0  0  0  0  0  0
   68.1462   37.9260   -0.4305 H   0  0  0  0  0  0  0  0  0  0  0  0
   67.8613   40.8308   -2.1573 H   0  0  0  0  0  0  0  0  0  0  0  0
   72.2975   45.4000   -3.8389 H   0  0  0  0  0  0  0  0  0  0  0  0
   72.1494   47.1760   -5.5878 H   0  0  0  0  0  0  0  0  0  0  0  0
   70.2107   47.2254   -7.1575 H   0  0  0  0  0  0  0  0  0  0  0  0
   67.3930   45.2430   -6.9450 H   0  0  0  0  0  0  0  0  0  0  0  0
   66.6860   41.6940   -3.6430 H   0  0  0  0  0  0  0  0  0  0  0  0
   71.9788   42.1032   -2.0279 H   0  0  0  0  0  0  0  0  0  0  0  0
   72.4223   40.4695   -0.2123 H   0  0  0  0  0  0  0  0  0  0  0  0
   71.6085   39.1142    1.5049 H   0  0  0  0  0  0  0  0  0  0  0  0
   69.8498   38.6133    1.5792 H   0  0  0  0  0  0  0  0  0  0  0  0
   70.5089   37.1308   -0.4746 H   0  0  0  0  0  0  0  0  0  0  0  0
   73.1889   37.1362    0.9700 H   0  0  0  0  0  0  0  0  0  0  0  0
   72.7306   36.2731   -0.5372 H   0  0  0  0  0  0  0  0  0  0  0  0
   72.8796   38.0632   -0.5372 H   0  0  0  0  0  0  0  0  0  0  0  0
   70.9029   36.7093    2.5030 H   0  0  0  0  0  0  0  0  0  0  0  0
   69.7094   35.9581    1.3904 H   0  0  0  0  0  0  0  0  0  0  0  0
   71.4153   35.3955    1.3904 H   0  0  0  0  0  0  0  0  0  0  0  0
  1  2  1  0
  2  3  1  0
  3  4  2  0
  4  5  1  0
  5  6  1  0
  6  7  1  0
  7  8  1  0
  8  9  2  0
  9 10  1  0
 10 11  2  0
 11 12  1  0
 12 13  1  0
 12 14  2  0
 14 15  1  0
 15 16  2  0
 15 17  1  0
 17 18  1  0
  5 19  2  0
 19 20  1  0
 20 21  2  0
 21 22  1  0
 22 23  1  0
 23 24  1  0
 23 25  1  0
 21  3  1  0
 17  6  2  0
 14  8  1  0
  1 26  1  0
  1 27  1  0
  1 28  1  0
  2 29  1  0
  2 30  1  0
  4 31  1  0
  9 32  1  0
 10 33  1  0
 11 34  1  0
 13 35  1  0
 18 36  1  0
 19 37  1  0
 20 38  1  0
 22 39  1  0
 22 40  1  0
 23 41  1  0
 24 42  1  0
 24 43  1  0
 24 44  1  0
 25 45  1  0
 25 46  1  0
 25 47  1  0
M  END
>  <meeko>  (8) 
{"is_sidechain": [false], "free_energy": -7.223, "intermolecular_energy": -9.892, "internal_energy": -0.24}

$$$$
cand_049_out
     RDKit          3D

 47 49  0  0  0  0  0  0  0  0999 V2000
   72.5780   38.2680   -2.8890 C   0  0  0  0  0  0  0  0  0  0  0  0
   73.0730   39.3300   -1.9160 C   0  0  0  0  0  0  0  0  0  0  0  0
   72.0170   40.3790   -1.6440 C   0  0  0  0  0  0  0  0  0  0  0  0
   71.6740   41.2550   -2.6940 C   0  0  0  0  0  0  0  0  0  0  0  0
   70.6790   42.2330   -2.5500 C   0  0  0  0  0  0  0  0  0  0  0  0
   70.3770   43.1480   -3.6730 C   0  0  0  0  0  0  0  0  0  0  0  0
   69.1060   42.9530   -4.2000 O   0  0  0  0  0  0  0  0  0  0  0  0
   68.6960   43.7360   -5.2480 C   0  0  0  0  0  0  0  0  0  0  0  0
   67.4180   43.4970   -5.7550 C   0  0  0  0  0  0  0  0  0  0  0  0
   66.9380   44.2610   -6.8220 C   0  0  0  0  0  0  0  0  0  0  0  0
   67.7340   45.2630   -7.3800 C   0  0  0  0  0  0  0  0  0  0  0  0
   69.0090   45.4990   -6.8720 C   0  0  0  0  0  0  0  0  0  0  0  0
   69.7350   46.4950   -7.4640 O   0  0  0  0  0  0  0  0  0  0  0  0
   69.4890   44.7350   -5.8050 C   0  0  0  0  0  0  0  0  0  0  0  0
   70.8230   44.9500   -5.2410 C   0  0  0  0  0  0  0  0  0  0  0  0
   71.5790   45.8170   -5.6740 O   0  0  0  0  0  0  0  0  0  0  0  0
   71.2390   44.0810   -4.1170 C   0  0  0  0  0  0  0  0  0  0  0  0
   72.4960   44.3030   -3.5830 O   0  0  0  0  0  0  0  0  0  0  0  0
   70.0250   42.3350   -1.3200 C   0  0  0  0  0  0  0  0  0  0  0  0
   70.3470   41.4720   -0.2700 C   0  0  0  0  0  0  0  0  0  0  0  0
   71.3410   40.4890   -0.4120 C   0  0  0  0  0  0  0  0  0  0  0  0
   71.6420   39.5970    0.7760 C   0  0  0  0  0  0  0  0  0  0  0  0
   70.6790   38.4010    0.9210 C   0  0  0  0  0  0  0  0  0  0  0  0
   69.3970   38.5840    0.1050 C   0  0  0  0  0  0  0  0  0  0  0  0
   71.3860   37.1150    0.4820 C   0  0  0  0  0  0  0  0  0  0  0  0
   72.1789   37.4118   -2.3254 H   0  0  0  0  0  0  0  0  0  0  0  0
   71.7847   38.6920   -3.5222 H   0  0  0  0  0  0  0  0  0  0  0  0
   73.4128   37.9332   -3.5222 H   0  0  0  0  0  0  0  0  0  0  0  0
   73.3452   38.8445   -0.9672 H   0  0  0  0  0  0  0  0  0  0  0  0
   73.9425   39.8294   -2.3683 H   0  0  0  0  0  0  0  0  0  0  0  0
   72.2025   41.1689   -3.6549 H   0  0  0  0  0  0  0  0  0  0  0  0
   66.7895   42.7085   -5.3154 H   0  0  0  0  0  0  0  0  0  0  0  0
   65.9312   44.0726   -7.2230 H   0  0  0  0  0  0  0  0  0  0  0  0
   67.3549   45.8648   -8.2191 H   0  0  0  0  0  0  0  0  0  0  0  0
   70.6440   46.3650   -7.6510 H   0  0  0  0  0  0  0  0  0  0  0  0
   72.8280   43.7360   -2.9150 H   0  0  0  0  0  0  0  0  0  0  0  0
   69.2494   43.1018   -1.1770 H   0  0  0  0  0  0  0  0  0  0  0  0
   69.8120   41.5637    0.6868 H   0  0  0  0  0  0  0  0  0  0  0  0
   72.6645   39.2067    0.6655 H   0  0  0  0  0  0  0  0  0  0  0  0
   71.5204   40.2152    1.6777 H   0  0  0  0  0  0  0  0  0  0  0  0
   70.3910   38.3367    1.9807 H   0  0  0  0  0  0  0  0  0  0  0  0
   68.5426   38.7060    0.7870 H   0  0  0  0  0  0  0  0  0  0  0  0
   69.4905   39.4779   -0.5292 H   0  0  0  0  0  0  0  0  0  0  0  0
   69.2366   37.6996   -0.5292 H   0  0  0  0  0  0  0  0  0  0  0  0
   71.6984   36.5467    1.3705 H   0  0  0  0  0  0  0  0  0  0  0  0
   70.6966   36.5047   -0.1199 H   0  0  0  0  0  0  0  0  0  0  0  0
   72.2707   37.3701   -0.1199 H   0  0  0  0  0  0  0  0  0  0  0  0
  1  2  1  0
  2  3  1  0
  3  4  2  0
  4  5  1  0
  5  6  1  0
  6  7  1  0
  7  8  1  0
  8  9  2  0
  9 10  1  0
 10 11  2  0
 11 12  1  0
 12 13  1  0
 12 14  2  0
 14 15  1  0
 15 16  2  0
 15 17  1  0
 17 18  1  0
  5 19  2  0
 19 20  1  0
 20 21  2  0
 21 22  1  0
 22 23  1  0
 23 24  1  0
 23 25  1  0
 21  3  1  0
 17  6  2  0
 14  8  1  0
  1 26  1  0
  1 27  1  0
  1 28  1  0
  2 29  1  0
  2 30  1  0
  4 31  1  0
  9 32  1  0
 10 33  1  0
 11 34  1  0
 13 35  1  0
 18 36  1  0
 19 37  1  0
 20 38  1  0
 22 39  1  0
 22 40  1  0
 23 41  1  0
 24 42  1  0
 24 43  1  0
 24 44  1  0
 25 45  1  0
 25 46  1  0
 25 47  1  0
M  END
>  <meeko>  (9) 
{"is_sidechain": [false], "free_energy": -7.22, "intermolecular_energy": -9.413, "internal_energy": -0.716}

$$$$
