cand_020_out
     RDKit          3D

 50 53  0  0  0  0  0  0  0  0999 V2000
   68.1980   44.3020   -7.0740 C   0  0  0  0  0  0  0  0  0  0  0  0
   69.3680   44.5810   -6.1430 C   0  0  0  0  0  0  0  0  0  0  0  0
   69.5300   43.5020   -5.0950 C   0  0  0  0  0  0  0  0  0  0  0  0
   68.4030   43.0930   -4.3640 C   0  0  0  0  0  0  0  0  0  0  0  0
   68.5080   42.1150   -3.3740 C   0  0  0  0  0  0  0  0  0  0  0  0
   69.7430   41.5260   -3.0840 C   0  0  0  0  0  0  0  0  0  0  0  0
   69.8300   40.4700   -2.0520 C   0  0  0  0  0  0  0  0  0  0  0  0
   71.0960   39.8980   -1.9700 O   0  0  0  0  0  0  0  0  0  0  0  0
   71.3160   38.9040   -1.0530 C   0  0  0  0  0  0  0  0  0  0  0  0
   72.6040   38.3700   -0.9960 C   0  0  0  0  0  0  0  0  0  0  0  0
   72.8950   37.3520   -0.0850 C   0  0  0  0  0  0  0  0  0  0  0  0
   71.9010   36.8680    0.7680 C   0  0  0  0  0  0  0  0  0  0  0  0
   70.6170   37.4040    0.7090 C   0  0  0  0  0  0  0  0  0  0  0  0
   69.6910   36.8840    1.5700 O   0  0  0  0  0  0  0  0  0  0  0  0
   70.3250   38.4220   -0.2030 C   0  0  0  0  0  0  0  0  0  0  0  0
   68.9890   39.0120   -0.2990 C   0  0  0  0  0  0  0  0  0  0  0  0
   68.0600   38.6360    0.4130 O   0  0  0  0  0  0  0  0  0  0  0  0
   68.7860   40.0920   -1.2920 C   0  0  0  0  0  0  0  0  0  0  0  0
   67.5170   40.6330   -1.3810 O   0  0  0  0  0  0  0  0  0  0  0  0
   70.8680   41.9340   -3.8170 C   0  0  0  0  0  0  0  0  0  0  0  0
   70.7840   42.9250   -4.8130 C   0  0  0  0  0  0  0  0  0  0  0  0
   71.9190   43.3440   -5.5450 N   0  0  0  0  0  0  0  0  0  0  0  0
   72.6390   44.4610   -4.9120 C   0  0  0  0  0  0  0  0  0  0  0  0
   73.6860   44.9930   -5.8890 C   0  0  0  0  0  0  0  0  0  0  0  0
   74.6300   43.8800   -6.3430 C   0  0  0  0  0  0  0  0  0  0  0  0
   73.8470   42.6910   -6.8970 C   0  0  0  0  0  0  0  0  0  0  0  0
   72.7870   42.2110   -5.9040 C   0  0  0  0  0  0  0  0  0  0  0  0
   67.2985   44.0875   -6.4783 H   0  0  0  0  0  0  0  0  0  0  0  0
   68.0164   45.1820   -7.7085 H   0  0  0  0  0  0  0  0  0  0  0  0
   68.4330   43.4347   -7.7085 H   0  0  0  0  0  0  0  0  0  0  0  0
   70.2905   44.6377   -6.7395 H   0  0  0  0  0  0  0  0  0  0  0  0
   69.1697   45.5305   -5.6243 H   0  0  0  0  0  0  0  0  0  0  0  0
   67.4246   43.5495   -4.5744 H   0  0  0  0  0  0  0  0  0  0  0  0
   67.6117   41.8047   -2.8169 H   0  0  0  0  0  0  0  0  0  0  0  0
   73.3884   38.7500   -1.6671 H   0  0  0  0  0  0  0  0  0  0  0  0
   73.9100   36.9304   -0.0394 H   0  0  0  0  0  0  0  0  0  0  0  0
   72.1315   36.0657    1.4844 H   0  0  0  0  0  0  0  0  0  0  0  0
   69.0270   37.4380    1.9350 H   0  0  0  0  0  0  0  0  0  0  0  0
   67.2120   40.9830   -2.1950 H   0  0  0  0  0  0  0  0  0  0  0  0
   71.8416   41.4668   -3.6076 H   0  0  0  0  0  0  0  0  0  0  0  0
   71.9288   45.2622   -4.6597 H   0  0  0  0  0  0  0  0  0  0  0  0
   73.1312   44.1130   -3.9919 H   0  0  0  0  0  0  0  0  0  0  0  0
   73.1761   45.4129   -6.7686 H   0  0  0  0  0  0  0  0  0  0  0  0
   74.2781   45.7674   -5.3794 H   0  0  0  0  0  0  0  0  0  0  0  0
   75.2950   44.2700   -7.1276 H   0  0  0  0  0  0  0  0  0  0  0  0
   75.2153   43.5410   -5.4756 H   0  0  0  0  0  0  0  0  0  0  0  0
   73.3517   42.9926   -7.8317 H   0  0  0  0  0  0  0  0  0  0  0  0
   74.5515   41.8658   -7.0780 H   0  0  0  0  0  0  0  0  0  0  0  0
   72.1832   41.4154   -6.3649 H   0  0  0  0  0  0  0  0  0  0  0  0
   73.2754   41.8162   -5.0009 H   0  0  0  0  0  0  0  0  0  0  0  0
  1  2  1  0
  2  3  1  0
  3  4  2  0
  4  5  1  0
  5  6  2  0
  6  7  1  0
  7  8  1  0
  8  9  1  0
  9 10  2  0
 10 11  1  0
 11 12  2  0
 12 13  1  0
 13 14  1  0
 13 15  2  0
 15 16  1  0
 16 17  2  0
 16 18  1  0
 18 19  1  0
  6 20  1  0
 20 21  2  0
 21 22  1  0
 22 23  1  0
 23 24  1  0
 24 25  1  0
 25 26  1  0
 26 27  1  0
 21  3  1  0
 27 22  1  0
 18  7  2  0
 15  9  1  0
  1 28  1  0
  1 29  1  0
  1 30  1  0
  2 31  1  0
  2 32  1  0
  4 33  1  0
  5 34  1  0
 10 35  1  0
 11 36  1  0
 12 37  1  0
 14 38  1  0
 19 39  1  0
 20 40  1  0
 23 41  1  0
 23 42  1  0
 24 43  1  0
 24 44  1  0
 25 45  1  0
 25 46  1  0
 26 47  1  0
 26 48  1  0
 27 49  1  0
 27 50  1  0
M  END
>  <meeko>  (1) 
{"is_sidechain": [false], "free_energy": -8.417, "intermolecular_energy": -10.386, "internal_energy": -0.119}

$$$$
cand_020_out
     RDKit          3D

 50 53  0  0  0  0  0  0  0  0999 V2000
   74.8170   43.9660   -7.8430 C   0  0  0  0  0  0  0  0  0  0  0  0
   74.0010   44.6720   -6.7710 C   0  0  0  0  0  0  0  0  0  0  0  0
   73.5770   43.7300   -5.6660 C   0  0  0  0  0  0  0  0  0  0  0  0
   73.0020   42.4970   -6.0110 C   0  0  0  0  0  0  0  0  0  0  0  0
   72.5790   41.6030   -5.0260 C   0  0  0  0  0  0  0  0  0  0  0  0
   72.7130   41.9230   -3.6700 C   0  0  0  0  0  0  0  0  0  0  0  0
   72.2860   40.9510   -2.6400 C   0  0  0  0  0  0  0  0  0  0  0  0
   70.9120   40.9630   -2.4240 O   0  0  0  0  0  0  0  0  0  0  0  0
   70.3810   40.1090   -1.4930 C   0  0  0  0  0  0  0  0  0  0  0  0
   68.9970   40.1440   -1.3200 C   0  0  0  0  0  0  0  0  0  0  0  0
   68.3900   39.3010   -0.3850 C   0  0  0  0  0  0  0  0  0  0  0  0
   69.1670   38.4240    0.3750 C   0  0  0  0  0  0  0  0  0  0  0  0
   70.5480   38.3920    0.2000 C   0  0  0  0  0  0  0  0  0  0  0  0
   71.2490   37.5110    0.9770 O   0  0  0  0  0  0  0  0  0  0  0  0
   71.1550   39.2350   -0.7350 C   0  0  0  0  0  0  0  0  0  0  0  0
   72.6020   39.2330   -0.9510 C   0  0  0  0  0  0  0  0  0  0  0  0
   73.3530   38.4950   -0.3160 O   0  0  0  0  0  0  0  0  0  0  0  0
   73.1450   40.1590   -1.9720 C   0  0  0  0  0  0  0  0  0  0  0  0
   74.5150   40.1570   -2.1570 O   0  0  0  0  0  0  0  0  0  0  0  0
   73.2900   43.1550   -3.3280 C   0  0  0  0  0  0  0  0  0  0  0  0
   73.7150   44.0730   -4.3070 C   0  0  0  0  0  0  0  0  0  0  0  0
   74.2870   45.3190   -3.9610 N   0  0  0  0  0  0  0  0  0  0  0  0
   73.3530   46.2120   -3.2570 C   0  0  0  0  0  0  0  0  0  0  0  0
   73.9800   47.6010   -3.1500 C   0  0  0  0  0  0  0  0  0  0  0  0
   75.3460   47.5370   -2.4670 C   0  0  0  0  0  0  0  0  0  0  0  0
   76.2560   46.5230   -3.1570 C   0  0  0  0  0  0  0  0  0  0  0  0
   75.5790   45.1560   -3.2740 C   0  0  0  0  0  0  0  0  0  0  0  0
   75.5665   43.3176   -7.3657 H   0  0  0  0  0  0  0  0  0  0  0  0
   74.1497   43.3557   -8.4693 H   0  0  0  0  0  0  0  0  0  0  0  0
   75.3250   44.7141   -8.4693 H   0  0  0  0  0  0  0  0  0  0  0  0
   74.6095   45.4784   -6.3356 H   0  0  0  0  0  0  0  0  0  0  0  0
   73.0914   45.0697   -7.2447 H   0  0  0  0  0  0  0  0  0  0  0  0
   72.8831   42.2316   -7.0719 H   0  0  0  0  0  0  0  0  0  0  0  0
   72.1367   40.6391   -5.3178 H   0  0  0  0  0  0  0  0  0  0  0  0
   68.3844   40.8341   -1.9187 H   0  0  0  0  0  0  0  0  0  0  0  0
   67.2990   39.3283   -0.2475 H   0  0  0  0  0  0  0  0  0  0  0  0
   68.6890   37.7600    1.1103 H   0  0  0  0  0  0  0  0  0  0  0  0
   70.7930   36.9280    1.5520 H   0  0  0  0  0  0  0  0  0  0  0  0
   74.8940   39.6400   -2.8400 H   0  0  0  0  0  0  0  0  0  0  0  0
   73.4138   43.4109   -2.2654 H   0  0  0  0  0  0  0  0  0  0  0  0
   72.4091   46.2754   -3.8183 H   0  0  0  0  0  0  0  0  0  0  0  0
   73.1481   45.8177   -2.2508 H   0  0  0  0  0  0  0  0  0  0  0  0
   74.1027   48.0186   -4.1602 H   0  0  0  0  0  0  0  0  0  0  0  0
   73.3170   48.2381   -2.5462 H   0  0  0  0  0  0  0  0  0  0  0  0
   75.8166   48.5303   -2.5100 H   0  0  0  0  0  0  0  0  0  0  0  0
   75.2012   47.2240   -1.4224 H   0  0  0  0  0  0  0  0  0  0  0  0
   76.5004   46.8890   -4.1651 H   0  0  0  0  0  0  0  0  0  0  0  0
   77.1677   46.4077   -2.5525 H   0  0  0  0  0  0  0  0  0  0  0  0
   76.2208   44.4747   -3.8519 H   0  0  0  0  0  0  0  0  0  0  0  0
   75.4164   44.7344   -2.2711 H   0  0  0  0  0  0  0  0  0  0  0  0
  1  2  1  0
  2  3  1  0
  3  4  2  0
  4  5  1  0
  5  6  2  0
  6  7  1  0
  7  8  1  0
  8  9  1  0
  9 10  2  0
 10 11  1  0
 11 12  2  0
 12 13  1  0
 13 14  1  0
 13 15  2  0
 15 16  1  0
 16 17  2  0
 16 18  1  0
 18 19  1  0
  6 20  1  0
 20 21  2  0
 21 22  1  0
 22 23  1  0
 23 24  1  0
 24 25  1  0
 25 26  1  0
 26 27  1  0
 21  3  1  0
 27 22  1  0
 18  7  2  0
 15  9  1  0
  1 28  1  0
  1 29  1  0
  1 30  1  0
  2 31  1  0
  2 32  1  0
  4 33  1  0
  5 34  1  0
 10 35  1  0
 11 36  1  0
 12 37  1  0
 14 38  1  0
 19 39  1  0
 20 40  1  0
 23 41  1  0
 23 42  1  0
 24 43  1  0
 24 44  1  0
 25 45  1  0
 25 46  1  0
 26 47  1  0
 26 48  1  0
 27 49  1  0
 27 50  1  0
M  END
>  <meeko>  (2) 
{"is_sidechain": [false], "free_energy": -8.342, "intermolecular_energy": -9.508, "internal_energy": -0.903}

$$$$
cand_020_out
     RDKit          3D

 50 53  0  0  0  0  0  0  0  0999 V2000
   74.4710   43.1270   -7.7780 C   0  0  0  0  0  0  0  0  0  0  0  0
   74.0740   43.9290   -6.5480 C   0  0  0  0  0  0  0  0  0  0  0  0
   73.4470   43.0600   -5.4810 C   0  0  0  0  0  0  0  0  0  0  0  0
   72.1570   42.5480   -5.6950 C   0  0  0  0  0  0  0  0  0  0  0  0
   71.5320   41.7570   -4.7300 C   0  0  0  0  0  0  0  0  0  0  0  0
   72.1760   41.4640   -3.5230 C   0  0  0  0  0  0  0  0  0  0  0  0
   71.5100   40.5990   -2.5250 C   0  0  0  0  0  0  0  0  0  0  0  0
   72.3380   39.5900   -2.0470 O   0  0  0  0  0  0  0  0  0  0  0  0
   71.8460   38.7140   -1.1140 C   0  0  0  0  0  0  0  0  0  0  0  0
   72.7170   37.7270   -0.6520 C   0  0  0  0  0  0  0  0  0  0  0  0
   72.2780   36.8010    0.2980 C   0  0  0  0  0  0  0  0  0  0  0  0
   70.9710   36.8620    0.7850 C   0  0  0  0  0  0  0  0  0  0  0  0
   70.1050   37.8500    0.3220 C   0  0  0  0  0  0  0  0  0  0  0  0
   68.8390   37.8530    0.8390 O   0  0  0  0  0  0  0  0  0  0  0  0
   70.5430   38.7760   -0.6280 C   0  0  0  0  0  0  0  0  0  0  0  0
   69.6660   39.8280   -1.1420 C   0  0  0  0  0  0  0  0  0  0  0  0
   68.5010   39.9440   -0.7670 O   0  0  0  0  0  0  0  0  0  0  0  0
   70.2310   40.7650   -2.1400 C   0  0  0  0  0  0  0  0  0  0  0  0
   69.3880   41.7480   -2.6270 O   0  0  0  0  0  0  0  0  0  0  0  0
   73.4660   41.9740   -3.3120 C   0  0  0  0  0  0  0  0  0  0  0  0
   74.1100   42.7810   -4.2690 C   0  0  0  0  0  0  0  0  0  0  0  0
   75.4060   43.3040   -4.0520 N   0  0  0  0  0  0  0  0  0  0  0  0
   75.6050   43.8120   -2.6860 C   0  0  0  0  0  0  0  0  0  0  0  0
   76.9320   44.5690   -2.6280 C   0  0  0  0  0  0  0  0  0  0  0  0
   78.0900   43.6850   -3.0910 C   0  0  0  0  0  0  0  0  0  0  0  0
   77.8040   43.0870   -4.4670 C   0  0  0  0  0  0  0  0  0  0  0  0
   76.4530   42.3690   -4.4920 C   0  0  0  0  0  0  0  0  0  0  0  0
   74.9387   42.1821   -7.4644 H   0  0  0  0  0  0  0  0  0  0  0  0
   73.5758   42.9110   -8.3796 H   0  0  0  0  0  0  0  0  0  0  0  0
   75.1856   43.7079   -8.3796 H   0  0  0  0  0  0  0  0  0  0  0  0
   74.9722   44.4089   -6.1322 H   0  0  0  0  0  0  0  0  0  0  0  0
   73.3290   44.6770   -6.8570 H   0  0  0  0  0  0  0  0  0  0  0  0
   71.6325   42.7733   -6.6353 H   0  0  0  0  0  0  0  0  0  0  0  0
   70.5238   41.3602   -4.9201 H   0  0  0  0  0  0  0  0  0  0  0  0
   73.7471   37.6778   -1.0347 H   0  0  0  0  0  0  0  0  0  0  0  0
   72.9638   36.0222    0.6630 H   0  0  0  0  0  0  0  0  0  0  0  0
   70.6261   36.1320    1.5321 H   0  0  0  0  0  0  0  0  0  0  0  0
   68.4580   37.0550    1.1530 H   0  0  0  0  0  0  0  0  0  0  0  0
   68.5990   41.5100   -3.0740 H   0  0  0  0  0  0  0  0  0  0  0  0
   73.9883   41.7368   -2.3734 H   0  0  0  0  0  0  0  0  0  0  0  0
   74.7809   44.4905   -2.4206 H   0  0  0  0  0  0  0  0  0  0  0  0
   75.6231   42.9728   -1.9751 H   0  0  0  0  0  0  0  0  0  0  0  0
   76.8707   45.4521   -3.2809 H   0  0  0  0  0  0  0  0  0  0  0  0
   77.1172   44.8706   -1.5865 H   0  0  0  0  0  0  0  0  0  0  0  0
   79.0063   44.2912   -3.1453 H   0  0  0  0  0  0  0  0  0  0  0  0
   78.2145   42.8635   -2.3702 H   0  0  0  0  0  0  0  0  0  0  0  0
   77.7942   43.8948   -5.2136 H   0  0  0  0  0  0  0  0  0  0  0  0
   78.5909   42.3536   -4.6969 H   0  0  0  0  0  0  0  0  0  0  0  0
   76.2360   42.0269   -5.5147 H   0  0  0  0  0  0  0  0  0  0  0  0
   76.4816   41.4993   -3.8190 H   0  0  0  0  0  0  0  0  0  0  0  0
  1  2  1  0
  2  3  1  0
  3  4  2  0
  4  5  1  0
  5  6  2  0
  6  7  1  0
  7  8  1  0
  8  9  1  0
  9 10  2  0
 10 11  1  0
 11 12  2  0
 12 13  1  0
 13 14  1  0
 13 15  2  0
 15 16  1  0
 16 17  2  0
 16 18  1  0
 18 19  1  0
  6 20  1  0
 20 21  2  0
 21 22  1  0
 22 23  1  0
 23 24  1  0
 24 25  1  0
 25 26  1  0
 26 27  1  0
 21  3  1  0
 27 22  1  0
 18  7  2  0
 15  9  1  0
  1 28  1  0
  1 29  1  0
  1 30  1  0
  2 31  1  0
  2 32  1  0
  4 33  1  0
  5 34  1  0
 10 35  1  0
 11 36  1  0
 12 37  1  0
 14 38  1  0
 19 39  1  0
 20 40  1  0
 23 41  1  0
 23 42  1  0
 24 43  1  0
 24 44  1  0
 25 45  1  0
 25 46  1  0
 26 47  1  0
 26 48  1  0
 27 49  1  0
 27 50  1  0
M  END
>  <meeko>  (3) 
{"is_sidechain": [false], "free_energy": -8.186, "intermolecular_energy": -9.643, "internal_energy": -0.577}

$$$$
cand_020_out
     RDKit          3D

 50 53  0  0  0  0  0  0  0  0999 V2000
   72.2940   47.5540   -3.9800 C   0  0  0  0  0  0  0  0  0  0  0  0
   72.4670   46.3650   -4.9130 C   0  0  0  0  0  0  0  0  0  0  0  0
   72.3060   45.0470   -4.1890 C   0  0  0  0  0  0  0  0  0  0  0  0
   73.3910   44.5380   -3.4580 C   0  0  0  0  0  0  0  0  0  0  0  0
   73.2950   43.3170   -2.7900 C   0  0  0  0  0  0  0  0  0  0  0  0
   72.1140   42.5680   -2.8410 C   0  0  0  0  0  0  0  0  0  0  0  0
   72.0210   41.2900   -2.1020 C   0  0  0  0  0  0  0  0  0  0  0  0
   70.7570   41.0690   -1.5660 O   0  0  0  0  0  0  0  0  0  0  0  0
   70.5310   39.9190   -0.8550 C   0  0  0  0  0  0  0  0  0  0  0  0
   69.2440   39.7310   -0.3480 C   0  0  0  0  0  0  0  0  0  0  0  0
   68.9470   38.5810    0.3880 C   0  0  0  0  0  0  0  0  0  0  0  0
   69.9340   37.6210    0.6160 C   0  0  0  0  0  0  0  0  0  0  0  0
   71.2170   37.8110    0.1090 C   0  0  0  0  0  0  0  0  0  0  0  0
   72.1360   36.8330    0.3700 O   0  0  0  0  0  0  0  0  0  0  0  0
   71.5140   38.9610   -0.6280 C   0  0  0  0  0  0  0  0  0  0  0  0
   72.8490   39.2010   -1.1780 C   0  0  0  0  0  0  0  0  0  0  0  0
   73.7720   38.4050   -1.0140 O   0  0  0  0  0  0  0  0  0  0  0  0
   73.0580   40.4470   -1.9510 C   0  0  0  0  0  0  0  0  0  0  0  0
   74.3260   40.6670   -2.4560 O   0  0  0  0  0  0  0  0  0  0  0  0
   71.0290   43.0800   -3.5690 C   0  0  0  0  0  0  0  0  0  0  0  0
   71.1100   44.3050   -4.2570 C   0  0  0  0  0  0  0  0  0  0  0  0
   70.0200   44.8160   -5.0000 N   0  0  0  0  0  0  0  0  0  0  0  0
   69.5320   43.8840   -6.0290 C   0  0  0  0  0  0  0  0  0  0  0  0
   68.5330   44.6160   -6.9250 C   0  0  0  0  0  0  0  0  0  0  0  0
   67.3940   45.2180   -6.1030 C   0  0  0  0  0  0  0  0  0  0  0  0
   67.9370   46.0940   -4.9760 C   0  0  0  0  0  0  0  0  0  0  0  0
   68.9580   45.3370   -4.1240 C   0  0  0  0  0  0  0  0  0  0  0  0
   72.3439   47.2111   -2.9360 H   0  0  0  0  0  0  0  0  0  0  0  0
   73.0953   48.2846   -4.1647 H   0  0  0  0  0  0  0  0  0  0  0  0
   71.3177   48.0260   -4.1647 H   0  0  0  0  0  0  0  0  0  0  0  0
   71.7116   46.4266   -5.7102 H   0  0  0  0  0  0  0  0  0  0  0  0
   73.4860   46.4031   -5.3257 H   0  0  0  0  0  0  0  0  0  0  0  0
   74.3296   45.1096   -3.4113 H   0  0  0  0  0  0  0  0  0  0  0  0
   74.1554   42.9396   -2.2180 H   0  0  0  0  0  0  0  0  0  0  0  0
   68.4652   40.4868   -0.5276 H   0  0  0  0  0  0  0  0  0  0  0  0
   67.9334   38.4321    0.7885 H   0  0  0  0  0  0  0  0  0  0  0  0
   69.6989   36.7159    1.1952 H   0  0  0  0  0  0  0  0  0  0  0  0
   72.0450   36.2950    1.1330 H   0  0  0  0  0  0  0  0  0  0  0  0
   74.8890   39.9410   -2.6420 H   0  0  0  0  0  0  0  0  0  0  0  0
   70.0898   42.5084   -3.6028 H   0  0  0  0  0  0  0  0  0  0  0  0
   70.3779   43.5261   -6.6343 H   0  0  0  0  0  0  0  0  0  0  0  0
   69.0427   43.0228   -5.5505 H   0  0  0  0  0  0  0  0  0  0  0  0
   69.0549   45.4228   -7.4604 H   0  0  0  0  0  0  0  0  0  0  0  0
   68.1063   43.8928   -7.6356 H   0  0  0  0  0  0  0  0  0  0  0  0
   66.7599   45.8303   -6.7610 H   0  0  0  0  0  0  0  0  0  0  0  0
   66.8100   44.3980   -5.6596 H   0  0  0  0  0  0  0  0  0  0  0  0
   68.4215   46.9797   -5.4127 H   0  0  0  0  0  0  0  0  0  0  0  0
   67.0966   46.3880   -4.3300 H   0  0  0  0  0  0  0  0  0  0  0  0
   69.3952   46.0187   -3.3796 H   0  0  0  0  0  0  0  0  0  0  0  0
   68.4632   44.5038   -3.6034 H   0  0  0  0  0  0  0  0  0  0  0  0
  1  2  1  0
  2  3  1  0
  3  4  2  0
  4  5  1  0
  5  6  2  0
  6  7  1  0
  7  8  1  0
  8  9  1  0
  9 10  2  0
 10 11  1  0
 11 12  2  0
 12 13  1  0
 13 14  1  0
 13 15  2  0
 15 16  1  0
 16 17  2  0
 16 18  1  0
 18 19  1  0
  6 20  1  0
 20 21  2  0
 21 22  1  0
 22 23  1  0
 23 24  1  0
 24 25  1  0
 25 26  1  0
 26 27  1  0
 21  3  1  0
 27 22  1  0
 18  7  2  0
 15  9  1  0
  1 28  1  0
  1 29  1  0
  1 30  1  0
  2 31  1  0
  2 32  1  0
  4 33  1  0
  5 34  1  0
 10 35  1  0
 11 36  1  0
 12 37  1  0
 14 38  1  0
 19 39  1  0
 20 40  1  0
 23 41  1  0
 23 42  1  0
 24 43  1  0
 24 44  1  0
 25 45  1  0
 25 46  1  0
 26 47  1  0
 26 48  1  0
 27 49  1  0
 27 50  1  0
M  END
>  <meeko>  (4) 
{"is_sidechain": [false], "free_energy": -8.179, "intermolecular_energy": -9.706, "internal_energy": -0.504}

$$$$
cand_020_out
     RDKit          3D

 50 53  0  0  0  0  0  0  0  0999 V2000
   73.5680   45.9190   -6.4250 C   0  0  0  0  0  0  0  0  0  0  0  0
   74.2170   45.8450   -5.0510 C   0  0  0  0  0  0  0  0  0  0  0  0
   73.8010   44.6030   -4.2930 C   0  0  0  0  0  0  0  0  0  0  0  0
   72.6120   44.6310   -3.5480 C   0  0  0  0  0  0  0  0  0  0  0  0
   72.1990   43.5160   -2.8180 C   0  0  0  0  0  0  0  0  0  0  0  0
   72.9670   42.3470   -2.8080 C   0  0  0  0  0  0  0  0  0  0  0  0
   72.4990   41.1650   -2.0520 C   0  0  0  0  0  0  0  0  0  0  0  0
   71.1290   41.1870   -1.8130 O   0  0  0  0  0  0  0  0  0  0  0  0
   70.5610   40.1490   -1.1210 C   0  0  0  0  0  0  0  0  0  0  0  0
   69.1810   40.2040   -0.9160 C   0  0  0  0  0  0  0  0  0  0  0  0
   68.5390   39.1800   -0.2170 C   0  0  0  0  0  0  0  0  0  0  0  0
   69.2740   38.1010    0.2780 C   0  0  0  0  0  0  0  0  0  0  0  0
   70.6510   38.0480    0.0720 C   0  0  0  0  0  0  0  0  0  0  0  0
   71.3100   36.9650    0.5830 O   0  0  0  0  0  0  0  0  0  0  0  0
   71.2930   39.0730   -0.6280 C   0  0  0  0  0  0  0  0  0  0  0  0
   72.7370   39.0570   -0.8660 C   0  0  0  0  0  0  0  0  0  0  0  0
   73.4530   38.1450   -0.4570 O   0  0  0  0  0  0  0  0  0  0  0  0
   73.3190   40.1870   -1.6270 C   0  0  0  0  0  0  0  0  0  0  0  0
   74.6860   40.1660   -1.8340 O   0  0  0  0  0  0  0  0  0  0  0  0
   74.1540   42.3200   -3.5550 C   0  0  0  0  0  0  0  0  0  0  0  0
   74.5930   43.4380   -4.2910 C   0  0  0  0  0  0  0  0  0  0  0  0
   75.7940   43.4140   -5.0360 N   0  0  0  0  0  0  0  0  0  0  0  0
   76.9850   43.1640   -4.2090 C   0  0  0  0  0  0  0  0  0  0  0  0
   78.2350   43.4020   -5.0560 C   0  0  0  0  0  0  0  0  0  0  0  0
   78.2160   42.5410   -6.3180 C   0  0  0  0  0  0  0  0  0  0  0  0
   76.9190   42.7440   -7.0990 C   0  0  0  0  0  0  0  0  0  0  0  0
   75.6940   42.5300   -6.2080 C   0  0  0  0  0  0  0  0  0  0  0  0
   72.4810   46.0429   -6.3109 H   0  0  0  0  0  0  0  0  0  0  0  0
   73.9786   46.7761   -6.9788 H   0  0  0  0  0  0  0  0  0  0  0  0
   73.7751   44.9914   -6.9788 H   0  0  0  0  0  0  0  0  0  0  0  0
   75.3100   45.8360   -5.1747 H   0  0  0  0  0  0  0  0  0  0  0  0
   73.8888   46.7214   -4.4729 H   0  0  0  0  0  0  0  0  0  0  0  0
   71.9979   45.5436   -3.5395 H   0  0  0  0  0  0  0  0  0  0  0  0
   71.2608   43.5566   -2.2451 H   0  0  0  0  0  0  0  0  0  0  0  0
   68.6001   41.0533   -1.3049 H   0  0  0  0  0  0  0  0  0  0  0  0
   67.4517   39.2234   -0.0559 H   0  0  0  0  0  0  0  0  0  0  0  0
   68.7674   37.2950    0.8291 H   0  0  0  0  0  0  0  0  0  0  0  0
   71.1130   36.6610    1.4480 H   0  0  0  0  0  0  0  0  0  0  0  0
   75.2500   39.7620   -1.2040 H   0  0  0  0  0  0  0  0  0  0  0  0
   74.7583   41.4010   -3.5664 H   0  0  0  0  0  0  0  0  0  0  0  0
   76.9868   43.8483   -3.3478 H   0  0  0  0  0  0  0  0  0  0  0  0
   76.9742   42.1263   -3.8441 H   0  0  0  0  0  0  0  0  0  0  0  0
   78.2766   44.4625   -5.3451 H   0  0  0  0  0  0  0  0  0  0  0  0
   79.1183   43.1291   -4.4599 H   0  0  0  0  0  0  0  0  0  0  0  0
   79.0676   42.8192   -6.9562 H   0  0  0  0  0  0  0  0  0  0  0  0
   78.2855   41.4838   -6.0223 H   0  0  0  0  0  0  0  0  0  0  0  0
   76.8975   43.7690   -7.4975 H   0  0  0  0  0  0  0  0  0  0  0  0
   76.8869   42.0079   -7.9158 H   0  0  0  0  0  0  0  0  0  0  0  0
   74.7808   42.7684   -6.7730 H   0  0  0  0  0  0  0  0  0  0  0  0
   75.6518   41.4809   -5.8798 H   0  0  0  0  0  0  0  0  0  0  0  0
  1  2  1  0
  2  3  1  0
  3  4  2  0
  4  5  1  0
  5  6  2  0
  6  7  1  0
  7  8  1  0
  8  9  1  0
  9 10  2  0
 10 11  1  0
 11 12  2  0
 12 13  1  0
 13 14  1  0
 13 15  2  0
 15 16  1  0
 16 17  2  0
 16 18  1  0
 18 19  1  0
  6 20  1  0
 20 21  2  0
 21 22  1  0
 22 23  1  0
 23 24  1  0
 24 25  1  0
 25 26  1  0
 26 27  1  0
 21  3  1  0
 27 22  1  0
 18  7  2  0
 15  9  1  0
  1 28  1  0
  1 29  1  0
  1 30  1  0
  2 31  1  0
  2 32  1  0
  4 33  1  0
  5 34  1  0
 10 35  1  0
 11 36  1  0
 12 37  1  0
 14 38  1  0
 19 39  1  0
 20 40  1  0
 23 41  1  0
 23 42  1  0
 24 43  1  0
 24 44  1  0
 25 45  1  0
 25 46  1  0
 26 47  1  0
 26 48  1  0
 27 49  1  0
 27 50  1  0
M  END
>  <meeko>  (5) 
{"is_sidechain": [false], "free_energy": -8.084, "intermolecular_energy": -9.657, "internal_energy": -0.436}

$$$$
cand_020_out
     RDKit          3D

 50 53  0  0  0  0  0  0  0  0999 V2000
   70.1470   38.1020    0.0210 C   0  0  0  0  0  0  0  0  0  0  0  0
   70.7450   39.4350    0.4460 C   0  0  0  0  0  0  0  0  0  0  0  0
   71.6480   40.0180   -0.6180 C   0  0  0  0  0  0  0  0  0  0  0  0
   72.9680   39.5500   -0.7170 C   0  0  0  0  0  0  0  0  0  0  0  0
   73.8420   40.0730   -1.6710 C   0  0  0  0  0  0  0  0  0  0  0  0
   73.4230   41.0810   -2.5460 C   0  0  0  0  0  0  0  0  0  0  0  0
   74.3550   41.6010   -3.5690 C   0  0  0  0  0  0  0  0  0  0  0  0
   73.7210   41.9080   -4.7690 O   0  0  0  0  0  0  0  0  0  0  0  0
   74.4690   42.4010   -5.8060 C   0  0  0  0  0  0  0  0  0  0  0  0
   73.7890   42.7100   -6.9860 C   0  0  0  0  0  0  0  0  0  0  0  0
   74.4920   43.2140   -8.0820 C   0  0  0  0  0  0  0  0  0  0  0  0
   75.8720   43.4100   -8.0010 C   0  0  0  0  0  0  0  0  0  0  0  0
   76.5470   43.1010   -6.8220 C   0  0  0  0  0  0  0  0  0  0  0  0
   77.8980   43.3150   -6.8100 O   0  0  0  0  0  0  0  0  0  0  0  0
   75.8440   42.5970   -5.7250 C   0  0  0  0  0  0  0  0  0  0  0  0
   76.5150   42.2590   -4.4680 C   0  0  0  0  0  0  0  0  0  0  0  0
   77.7270   42.3970   -4.3210 O   0  0  0  0  0  0  0  0  0  0  0  0
   75.6770   41.7390   -3.3630 C   0  0  0  0  0  0  0  0  0  0  0  0
   76.3240   41.4130   -2.1850 O   0  0  0  0  0  0  0  0  0  0  0  0
   72.1020   41.5450   -2.4470 C   0  0  0  0  0  0  0  0  0  0  0  0
   71.2080   41.0380   -1.4850 C   0  0  0  0  0  0  0  0  0  0  0  0
   69.8800   41.5120   -1.3790 N   0  0  0  0  0  0  0  0  0  0  0  0
   69.7790   42.9770   -1.4710 C   0  0  0  0  0  0  0  0  0  0  0  0
   68.3570   43.4000   -1.1020 C   0  0  0  0  0  0  0  0  0  0  0  0
   67.3270   42.6920   -1.9820 C   0  0  0  0  0  0  0  0  0  0  0  0
   67.5270   41.1780   -1.9490 C   0  0  0  0  0  0  0  0  0  0  0  0
   68.9700   40.8000   -2.2900 C   0  0  0  0  0  0  0  0  0  0  0  0
   69.8843   37.5165    0.9144 H   0  0  0  0  0  0  0  0  0  0  0  0
   69.2427   38.2805   -0.5793 H   0  0  0  0  0  0  0  0  0  0  0  0
   70.8816   37.5453   -0.5793 H   0  0  0  0  0  0  0  0  0  0  0  0
   69.9273   40.1435    0.6445 H   0  0  0  0  0  0  0  0  0  0  0  0
   71.3511   39.2625    1.3476 H   0  0  0  0  0  0  0  0  0  0  0  0
   73.3175   38.7615   -0.0343 H   0  0  0  0  0  0  0  0  0  0  0  0
   74.8707   39.6888   -1.7356 H   0  0  0  0  0  0  0  0  0  0  0  0
   72.7017   42.5566   -7.0518 H   0  0  0  0  0  0  0  0  0  0  0  0
   73.9571   43.4573   -9.0119 H   0  0  0  0  0  0  0  0  0  0  0  0
   76.4246   43.8071   -8.8653 H   0  0  0  0  0  0  0  0  0  0  0  0
   78.2500   44.1070   -7.1670 H   0  0  0  0  0  0  0  0  0  0  0  0
   76.8570   42.0490   -1.7510 H   0  0  0  0  0  0  0  0  0  0  0  0
   71.7559   42.3260   -3.1400 H   0  0  0  0  0  0  0  0  0  0  0  0
   70.4942   43.4407   -0.7757 H   0  0  0  0  0  0  0  0  0  0  0  0
   70.0104   43.3027   -2.4959 H   0  0  0  0  0  0  0  0  0  0  0  0
   68.1674   43.1432   -0.0493 H   0  0  0  0  0  0  0  0  0  0  0  0
   68.2634   44.4849   -1.2580 H   0  0  0  0  0  0  0  0  0  0  0  0
   66.3172   42.9295   -1.6160 H   0  0  0  0  0  0  0  0  0  0  0  0
   67.4531   43.0396   -3.0180 H   0  0  0  0  0  0  0  0  0  0  0  0
   67.2880   40.8069   -0.9414 H   0  0  0  0  0  0  0  0  0  0  0  0
   66.8627   40.7237   -2.6989 H   0  0  0  0  0  0  0  0  0  0  0  0
   69.1046   39.7147   -2.1718 H   0  0  0  0  0  0  0  0  0  0  0  0
   69.1915   41.0802   -3.3304 H   0  0  0  0  0  0  0  0  0  0  0  0
  1  2  1  0
  2  3  1  0
  3  4  2  0
  4  5  1  0
  5  6  2  0
  6  7  1  0
  7  8  1  0
  8  9  1  0
  9 10  2  0
 10 11  1  0
 11 12  2  0
 12 13  1  0
 13 14  1  0
 13 15  2  0
 15 16  1  0
 16 17  2  0
 16 18  1  0
 18 19  1  0
  6 20  1  0
 20 21  2  0
 21 22  1  0
 22 23  1  0
 23 24  1  0
 24 25  1  0
 25 26  1  0
 26 27  1  0
 21  3  1  0
 27 22  1  0
 18  7  2  0
 15  9  1  0
  1 28  1  0
  1 29  1  0
  1 30  1  0
  2 31  1  0
  2 32  1  0
  4 33  1  0
  5 34  1  0
 10 35  1  0
 11 36  1  0
 12 37  1  0
 14 38  1  0
 19 39  1  0
 20 40  1  0
 23 41  1  0
 23 42  1  0
 24 43  1  0
 24 44  1  0
 25 45  1  0
 25 46  1  0
 26 47  1  0
 26 48  1  0
 27 49  1  0
 27 50  1  0
M  END
>  <meeko>  (6) 
{"is_sidechain": [false], "free_energy": -8.064, "intermolecular_energy": -9.612, "internal_energy": -0.456}

$$$$
cand_020_out
     RDKit          3D

 50 53  0  0  0  0  0  0  0  0999 V2000
   67.4900   40.0790   -2.1050 C   0  0  0  0  0  0  0  0  0  0  0  0
   68.5870   39.9390   -1.0600 C   0  0  0  0  0  0  0  0  0  0  0  0
   69.8820   40.5810   -1.5060 C   0  0  0  0  0  0  0  0  0  0  0  0
   69.8290   41.7890   -2.2180 C   0  0  0  0  0  0  0  0  0  0  0  0
   70.9960   42.4080   -2.6660 C   0  0  0  0  0  0  0  0  0  0  0  0
   72.2470   41.8320   -2.4190 C   0  0  0  0  0  0  0  0  0  0  0  0
   73.4760   42.5180   -2.8750 C   0  0  0  0  0  0  0  0  0  0  0  0
   73.3490   43.9030   -2.8840 O   0  0  0  0  0  0  0  0  0  0  0  0
   74.4160   44.6640   -3.2860 C   0  0  0  0  0  0  0  0  0  0  0  0
   74.2490   46.0490   -3.2650 C   0  0  0  0  0  0  0  0  0  0  0  0
   75.2960   46.8830   -3.6650 C   0  0  0  0  0  0  0  0  0  0  0  0
   76.5090   46.3320   -4.0850 C   0  0  0  0  0  0  0  0  0  0  0  0
   76.6720   44.9500   -4.1040 C   0  0  0  0  0  0  0  0  0  0  0  0
   77.8840   44.4770   -4.5270 O   0  0  0  0  0  0  0  0  0  0  0  0
   75.6240   44.1150   -3.7040 C   0  0  0  0  0  0  0  0  0  0  0  0
   75.7540   42.6580   -3.7100 C   0  0  0  0  0  0  0  0  0  0  0  0
   76.7870   42.0980   -4.0720 O   0  0  0  0  0  0  0  0  0  0  0  0
   74.5880   41.8640   -3.2590 C   0  0  0  0  0  0  0  0  0  0  0  0
   74.7190   40.4880   -3.2810 O   0  0  0  0  0  0  0  0  0  0  0  0
   72.2990   40.6260   -1.7040 C   0  0  0  0  0  0  0  0  0  0  0  0
   71.1320   39.9810   -1.2520 C   0  0  0  0  0  0  0  0  0  0  0  0
   71.1820   38.7610   -0.5400 N   0  0  0  0  0  0  0  0  0  0  0  0
   72.4080   37.9890   -0.7990 C   0  0  0  0  0  0  0  0  0  0  0  0
   72.2560   36.5970   -0.1860 C   0  0  0  0  0  0  0  0  0  0  0  0
   71.9310   36.6850    1.3050 C   0  0  0  0  0  0  0  0  0  0  0  0
   70.7180   37.5800    1.5480 C   0  0  0  0  0  0  0  0  0  0  0  0
   70.8960   38.9500    0.8910 C   0  0  0  0  0  0  0  0  0  0  0  0
   66.5191   40.2029   -1.6030 H   0  0  0  0  0  0  0  0  0  0  0  0
   67.6926   40.9586   -2.7337 H   0  0  0  0  0  0  0  0  0  0  0  0
   67.4652   39.1767   -2.7337 H   0  0  0  0  0  0  0  0  0  0  0  0
   68.2540   40.4213   -0.1292 H   0  0  0  0  0  0  0  0  0  0  0  0
   68.7753   38.8660   -0.9078 H   0  0  0  0  0  0  0  0  0  0  0  0
   68.8540   42.2541   -2.4257 H   0  0  0  0  0  0  0  0  0  0  0  0
   70.9322   43.3572   -3.2183 H   0  0  0  0  0  0  0  0  0  0  0  0
   73.2943   46.4837   -2.9340 H   0  0  0  0  0  0  0  0  0  0  0  0
   75.1650   47.9751   -3.6492 H   0  0  0  0  0  0  0  0  0  0  0  0
   77.3333   46.9888   -4.3999 H   0  0  0  0  0  0  0  0  0  0  0  0
   78.5420   44.2470   -3.9000 H   0  0  0  0  0  0  0  0  0  0  0  0
   74.9850   40.0300   -2.5080 H   0  0  0  0  0  0  0  0  0  0  0  0
   73.2780   40.1721   -1.4908 H   0  0  0  0  0  0  0  0  0  0  0  0
   72.5655   37.8994   -1.8840 H   0  0  0  0  0  0  0  0  0  0  0  0
   73.2722   38.5010   -0.3508 H   0  0  0  0  0  0  0  0  0  0  0  0
   71.4422   36.0648   -0.7003 H   0  0  0  0  0  0  0  0  0  0  0  0
   73.2069   36.0570   -0.3051 H   0  0  0  0  0  0  0  0  0  0  0  0
   71.7159   35.6760    1.6866 H   0  0  0  0  0  0  0  0  0  0  0  0
   72.7967   37.1179    1.8277 H   0  0  0  0  0  0  0  0  0  0  0  0
   69.8249   37.0946    1.1276 H   0  0  0  0  0  0  0  0  0  0  0  0
   70.6076   37.7273    2.6325 H   0  0  0  0  0  0  0  0  0  0  0  0
   69.9738   39.5380    1.0084 H   0  0  0  0  0  0  0  0  0  0  0  0
   71.7290   39.4862    1.3690 H   0  0  0  0  0  0  0  0  0  0  0  0
  1  2  1  0
  2  3  1  0
  3  4  2  0
  4  5  1  0
  5  6  2  0
  6  7  1  0
  7  8  1  0
  8  9  1  0
  9 10  2  0
 10 11  1  0
 11 12  2  0
 12 13  1  0
 13 14  1  0
 13 15  2  0
 15 16  1  0
 16 17  2  0
 16 18  1  0
 18 19  1  0
  6 20  1  0
 20 21  2  0
 21 22  1  0
 22 23  1  0
 23 24  1  0
 24 25  1  0
 25 26  1  0
 26 27  1  0
 21  3  1  0
 27 22  1  0
 18  7  2  0
 15  9  1  0
  1 28  1  0
  1 29  1  0
  1 30  1  0
  2 31  1  0
  2 32  1  0
  4 33  1  0
  5 34  1  0
 10 35  1  0
 11 36  1  0
 12 37  1  0
 14 38  1  0
 19 39  1  0
 20 40  1  0
 23 41  1  0
 23 42  1  0
 24 43  1  0
 24 44  1  0
 25 45  1  0
 25 46  1  0
 26 47  1  0
 26 48  1  0
 27 49  1  0
 27 50  1  0
M  END
>  <meeko>  (7) 
{"is_sidechain": [false], "free_energy": -8.046, "intermolecular_energy": -9.892, "internal_energy": -0.154}

$$$$
cand_020_out
     RDKit          3D

 50 53  0  0  0  0  0  0  0  0999 V2000
   77.7340   43.1830   -4.3520 C   0  0  0  0  0  0  0  0  0  0  0  0
   77.1190   43.6440   -3.0390 C   0  0  0  0  0  0  0  0  0  0  0  0
   75.7000   43.1480   -2.8720 C   0  0  0  0  0  0  0  0  0  0  0  0
   75.4880   41.8610   -2.3530 C   0  0  0  0  0  0  0  0  0  0  0  0
   74.1970   41.3550   -2.1990 C   0  0  0  0  0  0  0  0  0  0  0  0
   73.0840   42.1180   -2.5670 C   0  0  0  0  0  0  0  0  0  0  0  0
   71.7220   41.5770   -2.3690 C   0  0  0  0  0  0  0  0  0  0  0  0
   71.6230   40.7660   -1.2440 O   0  0  0  0  0  0  0  0  0  0  0  0
   70.4130   40.1970   -0.9410 C   0  0  0  0  0  0  0  0  0  0  0  0
   70.3560   39.4020    0.2050 C   0  0  0  0  0  0  0  0  0  0  0  0
   69.1540   38.7910    0.5690 C   0  0  0  0  0  0  0  0  0  0  0  0
   68.0100   38.9740   -0.2110 C   0  0  0  0  0  0  0  0  0  0  0  0
   68.0710   39.7680   -1.3540 C   0  0  0  0  0  0  0  0  0  0  0  0
   66.9150   39.9040   -2.0730 O   0  0  0  0  0  0  0  0  0  0  0  0
   69.2730   40.3790   -1.7180 C   0  0  0  0  0  0  0  0  0  0  0  0
   69.3800   41.2200   -2.9110 C   0  0  0  0  0  0  0  0  0  0  0  0
   68.4200   41.4240   -3.6510 O   0  0  0  0  0  0  0  0  0  0  0  0
   70.6980   41.8300   -3.2040 C   0  0  0  0  0  0  0  0  0  0  0  0
   70.7890   42.6120   -4.3410 O   0  0  0  0  0  0  0  0  0  0  0  0
   73.2980   43.4060   -3.0830 C   0  0  0  0  0  0  0  0  0  0  0  0
   74.5920   43.9310   -3.2550 C   0  0  0  0  0  0  0  0  0  0  0  0
   74.8080   45.2240   -3.7840 N   0  0  0  0  0  0  0  0  0  0  0  0
   74.7800   45.2610   -5.2550 C   0  0  0  0  0  0  0  0  0  0  0  0
   75.2620   46.6330   -5.7260 C   0  0  0  0  0  0  0  0  0  0  0  0
   74.4280   47.7520   -5.1030 C   0  0  0  0  0  0  0  0  0  0  0  0
   74.3890   47.6230   -3.5810 C   0  0  0  0  0  0  0  0  0  0  0  0
   73.9350   46.2270   -3.1520 C   0  0  0  0  0  0  0  0  0  0  0  0
   78.5984   42.5351   -4.1445 H   0  0  0  0  0  0  0  0  0  0  0  0
   76.9854   42.6217   -4.9304 H   0  0  0  0  0  0  0  0  0  0  0  0
   78.0628   44.0590   -4.9304 H   0  0  0  0  0  0  0  0  0  0  0  0
   77.7290   43.2612   -2.2075 H   0  0  0  0  0  0  0  0  0  0  0  0
   77.0959   44.7438   -3.0427 H   0  0  0  0  0  0  0  0  0  0  0  0
   76.3511   41.2434   -2.0639 H   0  0  0  0  0  0  0  0  0  0  0  0
   74.0531   40.3464   -1.7842 H   0  0  0  0  0  0  0  0  0  0  0  0
   71.2562   39.2570    0.8203 H   0  0  0  0  0  0  0  0  0  0  0  0
   69.1082   38.1643    1.4719 H   0  0  0  0  0  0  0  0  0  0  0  0
   67.0636   38.4926    0.0764 H   0  0  0  0  0  0  0  0  0  0  0  0
   66.5370   39.1590   -2.4980 H   0  0  0  0  0  0  0  0  0  0  0  0
   70.2350   43.3610   -4.4390 H   0  0  0  0  0  0  0  0  0  0  0  0
   72.4299   44.0219   -3.3606 H   0  0  0  0  0  0  0  0  0  0  0  0
   75.4418   44.4795   -5.6565 H   0  0  0  0  0  0  0  0  0  0  0  0
   73.7549   45.0837   -5.6124 H   0  0  0  0  0  0  0  0  0  0  0  0
   76.3144   46.7639   -5.4340 H   0  0  0  0  0  0  0  0  0  0  0  0
   75.1553   46.6847   -6.8196 H   0  0  0  0  0  0  0  0  0  0  0  0
   74.8711   48.7226   -5.3706 H   0  0  0  0  0  0  0  0  0  0  0  0
   73.4000   47.6787   -5.4875 H   0  0  0  0  0  0  0  0  0  0  0  0
   75.3958   47.8112   -3.1797 H   0  0  0  0  0  0  0  0  0  0  0  0
   73.6697   48.3572   -3.1891 H   0  0  0  0  0  0  0  0  0  0  0  0
   74.0022   46.1374   -2.0577 H   0  0  0  0  0  0  0  0  0  0  0  0
   72.8931   46.0626   -3.4643 H   0  0  0  0  0  0  0  0  0  0  0  0
  1  2  1  0
  2  3  1  0
  3  4  2  0
  4  5  1  0
  5  6  2  0
  6  7  1  0
  7  8  1  0
  8  9  1  0
  9 10  2  0
 10 11  1  0
 11 12  2  0
 12 13  1  0
 13 14  1  0
 13 15  2  0
 15 16  1  0
 16 17  2  0
 16 18  1  0
 18 19  1  0
  6 20  1  0
 20 21  2  0
 21 22  1  0
 22 23  1  0
 23 24  1  0
 24 25  1  0
 25 26  1  0
 26 27  1  0
 21  3  1  0
 27 22  1  0
 18  7  2  0
 15  9  1  0
  1 28  1  0
  1 29  1  0
  1 30  1  0
  2 31  1  0
  2 32  1  0
  4 33  1  0
  5 34  1  0
 10 35  1  0
 11 36  1  0
 12 37  1  0
 14 38  1  0
 19 39  1  0
 20 40  1  0
 23 41  1  0
 23 42  1  0
 24 43  1  0
 24 44  1  0
 25 45  1  0
 25 46  1  0
 26 47  1  0
 26 48  1  0
 27 49  1  0
 27 50  1  0
M  END
>  <meeko>  (8) 
{"is_sidechain": [false], "free_energy": -7.978, "intermolecular_energy": -9.429, "internal_energy": -0.535}

$$$$
cand_020_out
     RDKit          3D

 50 53  0  0  0  0  0  0  0  0999 V2000
   77.1590   45.0270   -2.9600 C   0  0  0  0  0  0  0  0  0  0  0  0
   76.4800   44.1300   -3.9830 C   0  0  0  0  0  0  0  0  0  0  0  0
   75.3720   43.3040   -3.3680 C   0  0  0  0  0  0  0  0  0  0  0  0
   75.7060   42.1170   -2.6970 C   0  0  0  0  0  0  0  0  0  0  0  0
   74.7160   41.3120   -2.1300 C   0  0  0  0  0  0  0  0  0  0  0  0
   73.3670   41.6700   -2.2260 C   0  0  0  0  0  0  0  0  0  0  0  0
   72.3340   40.8210   -1.5930 C   0  0  0  0  0  0  0  0  0  0  0  0
   72.8600   39.6650   -1.0260 O   0  0  0  0  0  0  0  0  0  0  0  0
   72.0110   38.7860   -0.4040 C   0  0  0  0  0  0  0  0  0  0  0  0
   72.5840   37.6480    0.1640 C   0  0  0  0  0  0  0  0  0  0  0  0
   71.7750   36.7100    0.8110 C   0  0  0  0  0  0  0  0  0  0  0  0
   70.3950   36.9110    0.8890 C   0  0  0  0  0  0  0  0  0  0  0  0
   69.8270   38.0480    0.3210 C   0  0  0  0  0  0  0  0  0  0  0  0
   68.4700   38.1830    0.4330 O   0  0  0  0  0  0  0  0  0  0  0  0
   70.6360   38.9860   -0.3260 C   0  0  0  0  0  0  0  0  0  0  0  0
   70.0800   40.1940   -0.9360 C   0  0  0  0  0  0  0  0  0  0  0  0
   68.8750   40.4380   -0.9140 O   0  0  0  0  0  0  0  0  0  0  0  0
   71.0240   41.1300   -1.5900 C   0  0  0  0  0  0  0  0  0  0  0  0
   70.4850   42.2610   -2.1730 O   0  0  0  0  0  0  0  0  0  0  0  0
   73.0360   42.8580   -2.8940 C   0  0  0  0  0  0  0  0  0  0  0  0
   74.0190   43.6780   -3.4810 C   0  0  0  0  0  0  0  0  0  0  0  0
   73.6840   44.8710   -4.1630 N   0  0  0  0  0  0  0  0  0  0  0  0
   72.5800   44.7000   -5.1210 C   0  0  0  0  0  0  0  0  0  0  0  0
   72.4630   45.9650   -5.9720 C   0  0  0  0  0  0  0  0  0  0  0  0
   72.2820   47.2030   -5.0940 C   0  0  0  0  0  0  0  0  0  0  0  0
   73.3850   47.2930   -4.0410 C   0  0  0  0  0  0  0  0  0  0  0  0
   73.4920   45.9960   -3.2350 C   0  0  0  0  0  0  0  0  0  0  0  0
   76.9016   44.6870   -1.9460 H   0  0  0  0  0  0  0  0  0  0  0  0
   78.2494   44.9794   -3.0970 H   0  0  0  0  0  0  0  0  0  0  0  0
   76.8172   46.0635   -3.0970 H   0  0  0  0  0  0  0  0  0  0  0  0
   76.0541   44.7586   -4.7789 H   0  0  0  0  0  0  0  0  0  0  0  0
   77.2364   43.4386   -4.3828 H   0  0  0  0  0  0  0  0  0  0  0  0
   76.7613   41.8172   -2.6169 H   0  0  0  0  0  0  0  0  0  0  0  0
   74.9991   40.3886   -1.6034 H   0  0  0  0  0  0  0  0  0  0  0  0
   73.6708   37.4892    0.1027 H   0  0  0  0  0  0  0  0  0  0  0  0
   72.2256   35.8123    1.2594 H   0  0  0  0  0  0  0  0  0  0  0  0
   69.7583   36.1725    1.3982 H   0  0  0  0  0  0  0  0  0  0  0  0
   68.0840   38.3540    1.2700 H   0  0  0  0  0  0  0  0  0  0  0  0
   70.8240   43.1070   -1.9570 H   0  0  0  0  0  0  0  0  0  0  0  0
   71.9797   43.1574   -2.9612 H   0  0  0  0  0  0  0  0  0  0  0  0
   72.7847   43.8358   -5.7701 H   0  0  0  0  0  0  0  0  0  0  0  0
   71.6389   44.5272   -4.5784 H   0  0  0  0  0  0  0  0  0  0  0  0
   73.3777   46.0805   -6.5719 H   0  0  0  0  0  0  0  0  0  0  0  0
   71.5829   45.8673   -6.6246 H   0  0  0  0  0  0  0  0  0  0  0  0
   72.3154   48.1015   -5.7277 H   0  0  0  0  0  0  0  0  0  0  0  0
   71.3121   47.1297   -4.5803 H   0  0  0  0  0  0  0  0  0  0  0  0
   74.3451   47.4830   -4.5432 H   0  0  0  0  0  0  0  0  0  0  0  0
   73.1386   48.1121   -3.3494 H   0  0  0  0  0  0  0  0  0  0  0  0
   74.3489   46.0581   -2.5481 H   0  0  0  0  0  0  0  0  0  0  0  0
   72.5722   45.8439   -2.6512 H   0  0  0  0  0  0  0  0  0  0  0  0
  1  2  1  0
  2  3  1  0
  3  4  2  0
  4  5  1  0
  5  6  2  0
  6  7  1  0
  7  8  1  0
  8  9  1  0
  9 10  2  0
 10 11  1  0
 11 12  2  0
 12 13  1  0
 13 14  1  0
 13 15  2  0
 15 16  1  0
 16 17  2  0
 16 18  1  0
 18 19  1  0
  6 20  1  0
 20 21  2  0
 21 22  1  0
 22 23  1  0
 23 24  1  0
 24 25  1  0
 25 26  1  0
 26 27  1  0
 21  3  1  0
 27 22  1  0
 18  7  2  0
 15  9  1  0
  1 28  1  0
  1 29  1  0
  1 30  1  0
  2 31  1  0
  2 32  1  0
  4 33  1  0
  5 34  1  0
 10 35  1  0
 11 36  1  0
 12 37  1  0
 14 38  1  0
 19 39  1  0
 20 40  1  0
 23 41  1  0
 23 42  1  0
 24 43  1  0
 24 44  1  0
 25 45  1  0
 25 46  1  0
 26 47  1  0
 26 48  1  0
 27 49  1  0
 27 50  1  0
M  END
>  <meeko>  (9) 
{"is_sidechain": [false], "free_energy": -7.904, "intermolecular_energy": -9.581, "internal_energy": -0.291}

$$$$
