9IV_ttbk2_out
     RDKit          3D

 37 40  0  0  0  0  0  0  0  0999 V2000
   52.1310  161.3790   31.5570 Cl  0  0  0  0  0  0  0  0  0  0  0  0
   50.4680  161.1310   31.9460 C   0  0  0  0  0  0  0  0  0  0  0  0
   50.0020  161.5590   33.1910 C   0  0  0  0  0  0  0  0  0  0  0  0
   48.6610  161.3740   33.5360 C   0  0  0  0  0  0  0  0  0  0  0  0
   47.7850  160.7670   32.6370 C   0  0  0  0  0  0  0  0  0  0  0  0
   48.2470  160.3380   31.3910 C   0  0  0  0  0  0  0  0  0  0  0  0
   49.5950  160.5030   31.0510 C   0  0  0  0  0  0  0  0  0  0  0  0
   50.0600  160.1220   29.8110 O   0  0  0  0  0  0  0  0  0  0  0  0
   50.5440  158.8400   29.6920 C   0  0  0  0  0  0  0  0  0  0  0  0
   49.7780  157.7070   29.9680 C   0  0  0  0  0  0  0  0  0  0  0  0
   50.3510  156.4380   29.8540 C   0  0  0  0  0  0  0  0  0  0  0  0
   51.6890  156.2810   29.4650 C   0  0  0  0  0  0  0  0  0  0  0  0
   52.2160  154.9750   29.3970 N   0  0  0  0  0  0  0  0  0  0  0  0
   52.2610  154.1170   28.2870 C   0  0  0  0  0  0  0  0  0  0  0  0
   51.8950  152.8270   28.5000 N   0  0  0  0  0  0  0  0  0  0  0  0
   51.9130  151.9700   27.4590 C   0  0  0  0  0  0  0  0  0  0  0  0
   52.2430  152.2210   26.1820 N   0  0  0  0  0  0  0  0  0  0  0  0
   52.5670  153.5110   26.0090 C   0  0  0  0  0  0  0  0  0  0  0  0
   52.9210  154.0680   24.8120 N   0  0  0  0  0  0  0  0  0  0  0  0
   53.1640  155.4080   24.9770 C   0  0  0  0  0  0  0  0  0  0  0  0
   52.9620  155.7080   26.3080 C   0  0  0  0  0  0  0  0  0  0  0  0
   52.5970  154.5040   26.9780 C   0  0  0  0  0  0  0  0  0  0  0  0
   52.4550  157.4300   29.2340 C   0  0  0  0  0  0  0  0  0  0  0  0
   51.8880  158.7030   29.3480 C   0  0  0  0  0  0  0  0  0  0  0  0
   50.6908  162.0418   33.8999 H   0  0  0  0  0  0  0  0  0  0  0  0
   48.2956  161.7077   34.5184 H   0  0  0  0  0  0  0  0  0  0  0  0
   46.7287  160.6259   32.9096 H   0  0  0  0  0  0  0  0  0  0  0  0
   47.5524  159.8709   30.6773 H   0  0  0  0  0  0  0  0  0  0  0  0
   48.7268  157.8125   30.2742 H   0  0  0  0  0  0  0  0  0  0  0  0
   49.7429  155.5479   30.0729 H   0  0  0  0  0  0  0  0  0  0  0  0
   52.5990  154.6210   30.2320 H   0  0  0  0  0  0  0  0  0  0  0  0
   51.6202  150.9340   27.6847 H   0  0  0  0  0  0  0  0  0  0  0  0
   52.9920  153.5810   23.9590 H   0  0  0  0  0  0  0  0  0  0  0  0
   53.4654  156.1152   24.1902 H   0  0  0  0  0  0  0  0  0  0  0  0
   53.0645  156.7007   26.7706 H   0  0  0  0  0  0  0  0  0  0  0  0
   53.5155  157.3300   28.9596 H   0  0  0  0  0  0  0  0  0  0  0  0
   52.5028  159.5969   29.1662 H   0  0  0  0  0  0  0  0  0  0  0  0
  1  2  1  0
  2  3  2  0
  3  4  1  0
  4  5  2  0
  5  6  1  0
  6  7  2  0
  7  8  1  0
  8  9  1  0
  9 10  2  0
 10 11  1  0
 11 12  2  0
 12 13  1  0
 13 14  1  0
 14 15  2  0
 15 16  1  0
 16 17  2  0
 17 18  1  0
 18 19  1  0
 19 20  1  0
 20 21  2  0
 21 22  1  0
 12 23  1  0
 23 24  2  0
  7  2  1  0
 24  9  1  0
 22 14  1  0
 22 18  2  0
  3 25  1  0
  4 26  1  0
  5 27  1  0
  6 28  1  0
 10 29  1  0
 11 30  1  0
 13 31  1  0
 16 32  1  0
 19 33  1  0
 20 34  1  0
 21 35  1  0
 23 36  1  0
 24 37  1  0
M  END
>  <meeko>  (1) 
{"is_sidechain": [false], "free_energy": -10.722, "intermolecular_energy": -13.229, "internal_energy": -0.601}

$$$$
9IV_ttbk2_out
     RDKit          3D

 37 40  0  0  0  0  0  0  0  0999 V2000
   46.7990  159.8000   31.2430 Cl  0  0  0  0  0  0  0  0  0  0  0  0
   48.1960  160.5430   31.9320 C   0  0  0  0  0  0  0  0  0  0  0  0
   48.1060  161.0640   33.2250 C   0  0  0  0  0  0  0  0  0  0  0  0
   49.2190  161.6700   33.8120 C   0  0  0  0  0  0  0  0  0  0  0  0
   50.4220  161.7520   33.1120 C   0  0  0  0  0  0  0  0  0  0  0  0
   50.5160  161.2320   31.8190 C   0  0  0  0  0  0  0  0  0  0  0  0
   49.3960  160.6420   31.2200 C   0  0  0  0  0  0  0  0  0  0  0  0
   49.4810  160.0890   29.9610 O   0  0  0  0  0  0  0  0  0  0  0  0
   50.2270  158.9400   29.8320 C   0  0  0  0  0  0  0  0  0  0  0  0
   51.5740  158.9440   29.4670 C   0  0  0  0  0  0  0  0  0  0  0  0
   52.2560  157.7330   29.3250 C   0  0  0  0  0  0  0  0  0  0  0  0
   51.6090  156.5080   29.5440 C   0  0  0  0  0  0  0  0  0  0  0  0
   52.3470  155.3210   29.3560 N   0  0  0  0  0  0  0  0  0  0  0  0
   52.3840  154.4970   28.2200 C   0  0  0  0  0  0  0  0  0  0  0  0
   52.0510  153.1940   28.4020 N   0  0  0  0  0  0  0  0  0  0  0  0
   52.0630  152.3680   27.3360 C   0  0  0  0  0  0  0  0  0  0  0  0
   52.3590  152.6640   26.0600 N   0  0  0  0  0  0  0  0  0  0  0  0
   52.6510  153.9650   25.9190 C   0  0  0  0  0  0  0  0  0  0  0  0
   52.9660  154.5640   24.7300 N   0  0  0  0  0  0  0  0  0  0  0  0
   53.1840  155.9030   24.9300 C   0  0  0  0  0  0  0  0  0  0  0  0
   53.0070  156.1600   26.2730 C   0  0  0  0  0  0  0  0  0  0  0  0
   52.6820  154.9290   26.9150 C   0  0  0  0  0  0  0  0  0  0  0  0
   50.2470  156.5230   29.8660 C   0  0  0  0  0  0  0  0  0  0  0  0
   49.5580  157.7310   30.0090 C   0  0  0  0  0  0  0  0  0  0  0  0
   47.1590  160.9970   33.7806 H   0  0  0  0  0  0  0  0  0  0  0  0
   49.1463  162.0835   34.8287 H   0  0  0  0  0  0  0  0  0  0  0  0
   51.2979  162.2266   33.5784 H   0  0  0  0  0  0  0  0  0  0  0  0
   51.4687  161.2858   31.2718 H   0  0  0  0  0  0  0  0  0  0  0  0
   52.0963  159.8962   29.2919 H   0  0  0  0  0  0  0  0  0  0  0  0
   53.3175  157.7404   29.0368 H   0  0  0  0  0  0  0  0  0  0  0  0
   52.9040  155.0350   30.1150 H   0  0  0  0  0  0  0  0  0  0  0  0
   51.7968  151.3198   27.5370 H   0  0  0  0  0  0  0  0  0  0  0  0
   53.0270  154.1040   23.8620 H   0  0  0  0  0  0  0  0  0  0  0  0
   53.4518  156.6394   24.1580 H   0  0  0  0  0  0  0  0  0  0  0  0
   53.1000  157.1407   26.7624 H   0  0  0  0  0  0  0  0  0  0  0  0
   49.7120  155.5724   30.0083 H   0  0  0  0  0  0  0  0  0  0  0  0
   48.4873  157.7268   30.2613 H   0  0  0  0  0  0  0  0  0  0  0  0
  1  2  1  0
  2  3  2  0
  3  4  1  0
  4  5  2  0
  5  6  1  0
  6  7  2  0
  7  8  1  0
  8  9  1  0
  9 10  2  0
 10 11  1  0
 11 12  2  0
 12 13  1  0
 13 14  1  0
 14 15  2  0
 15 16  1  0
 16 17  2  0
 17 18  1  0
 18 19  1  0
 19 20  1  0
 20 21  2  0
 21 22  1  0
 12 23  1  0
 23 24  2  0
  7  2  1  0
 24  9  1  0
 22 14  1  0
 22 18  2  0
  3 25  1  0
  4 26  1  0
  5 27  1  0
  6 28  1  0
 10 29  1  0
 11 30  1  0
 13 31  1  0
 16 32  1  0
 19 33  1  0
 20 34  1  0
 21 35  1  0
 23 36  1  0
 24 37  1  0
M  END
>  <meeko>  (2) 
{"is_sidechain": [false], "free_energy": -10.719, "intermolecular_energy": -13.018, "internal_energy": -0.808}

$$$$
9IV_ttbk2_out
     RDKit          3D

 37 40  0  0  0  0  0  0  0  0999 V2000
   52.3440  161.1390   30.5690 Cl  0  0  0  0  0  0  0  0  0  0  0  0
   50.8340  160.3070   30.5400 C   0  0  0  0  0  0  0  0  0  0  0  0
   49.6660  161.0310   30.7950 C   0  0  0  0  0  0  0  0  0  0  0  0
   48.4270  160.3870   30.7780 C   0  0  0  0  0  0  0  0  0  0  0  0
   48.3520  159.0220   30.5010 C   0  0  0  0  0  0  0  0  0  0  0  0
   49.5170  158.2950   30.2460 C   0  0  0  0  0  0  0  0  0  0  0  0
   50.7620  158.9340   30.2830 C   0  0  0  0  0  0  0  0  0  0  0  0
   51.9170  158.2400   29.9950 O   0  0  0  0  0  0  0  0  0  0  0  0
   51.7930  157.1130   29.2160 C   0  0  0  0  0  0  0  0  0  0  0  0
   51.0020  156.0220   29.5760 C   0  0  0  0  0  0  0  0  0  0  0  0
   50.9510  154.8990   28.7450 C   0  0  0  0  0  0  0  0  0  0  0  0
   51.6860  154.8490   27.5520 C   0  0  0  0  0  0  0  0  0  0  0  0
   51.6140  153.6750   26.7730 N   0  0  0  0  0  0  0  0  0  0  0  0
   52.6570  153.0200   26.0990 C   0  0  0  0  0  0  0  0  0  0  0  0
   52.6840  151.6660   26.1890 N   0  0  0  0  0  0  0  0  0  0  0  0
   53.6620  150.9960   25.5480 C   0  0  0  0  0  0  0  0  0  0  0  0
   54.6500  151.4940   24.7880 N   0  0  0  0  0  0  0  0  0  0  0  0
   54.5680  152.8300   24.6990 C   0  0  0  0  0  0  0  0  0  0  0  0
   55.4220  153.6120   23.9710 N   0  0  0  0  0  0  0  0  0  0  0  0
   55.0440  154.9270   24.0720 C   0  0  0  0  0  0  0  0  0  0  0  0
   53.9300  154.9810   24.8830 C   0  0  0  0  0  0  0  0  0  0  0  0
   53.6270  153.6520   25.2990 C   0  0  0  0  0  0  0  0  0  0  0  0
   52.5080  155.9350   27.2290 C   0  0  0  0  0  0  0  0  0  0  0  0
   52.5630  157.0610   28.0560 C   0  0  0  0  0  0  0  0  0  0  0  0
   49.7227  162.1085   31.0092 H   0  0  0  0  0  0  0  0  0  0  0  0
   47.5089  160.9570   30.9834 H   0  0  0  0  0  0  0  0  0  0  0  0
   47.3746  158.5177   30.4834 H   0  0  0  0  0  0  0  0  0  0  0  0
   49.4563  157.2210   30.0162 H   0  0  0  0  0  0  0  0  0  0  0  0
   50.4209  156.0452   30.5097 H   0  0  0  0  0  0  0  0  0  0  0  0
   50.3246  154.0414   29.0315 H   0  0  0  0  0  0  0  0  0  0  0  0
   50.7230  153.2640   26.6930 H   0  0  0  0  0  0  0  0  0  0  0  0
   53.6489  149.9020   25.6621 H   0  0  0  0  0  0  0  0  0  0  0  0
   56.1910  153.2820   23.4540 H   0  0  0  0  0  0  0  0  0  0  0  0
   55.5401  155.7837   23.5925 H   0  0  0  0  0  0  0  0  0  0  0  0
   53.3739  155.8888   25.1597 H   0  0  0  0  0  0  0  0  0  0  0  0
   53.1177  155.9021   26.3140 H   0  0  0  0  0  0  0  0  0  0  0  0
   53.2147  157.9065   27.7906 H   0  0  0  0  0  0  0  0  0  0  0  0
  1  2  1  0
  2  3  2  0
  3  4  1  0
  4  5  2  0
  5  6  1  0
  6  7  2  0
  7  8  1  0
  8  9  1  0
  9 10  2  0
 10 11  1  0
 11 12  2  0
 12 13  1  0
 13 14  1  0
 14 15  2  0
 15 16  1  0
 16 17  2  0
 17 18  1  0
 18 19  1  0
 19 20  1  0
 20 21  2  0
 21 22  1  0
 12 23  1  0
 23 24  2  0
  7  2  1  0
 24  9  1  0
 22 14  1  0
 22 18  2  0
  3 25  1  0
  4 26  1  0
  5 27  1  0
  6 28  1  0
 10 29  1  0
 11 30  1  0
 13 31  1  0
 16 32  1  0
 19 33  1  0
 20 34  1  0
 21 35  1  0
 23 36  1  0
 24 37  1  0
M  END
>  <meeko>  (3) 
{"is_sidechain": [false], "free_energy": -10.07, "intermolecular_energy": -13.977, "internal_energy": 0.951}

$$$$
9IV_ttbk2_out
     RDKit          3D

 37 40  0  0  0  0  0  0  0  0999 V2000
   52.1210  161.3820   30.6310 Cl  0  0  0  0  0  0  0  0  0  0  0  0
   50.6600  160.4660   30.5820 C   0  0  0  0  0  0  0  0  0  0  0  0
   49.4490  161.1260   30.8090 C   0  0  0  0  0  0  0  0  0  0  0  0
   48.2480  160.4140   30.7750 C   0  0  0  0  0  0  0  0  0  0  0  0
   48.2550  159.0440   30.5080 C   0  0  0  0  0  0  0  0  0  0  0  0
   49.4620  158.3820   30.2800 C   0  0  0  0  0  0  0  0  0  0  0  0
   50.6690  159.0890   30.3350 C   0  0  0  0  0  0  0  0  0  0  0  0
   51.8670  158.4600   30.0730 O   0  0  0  0  0  0  0  0  0  0  0  0
   51.8210  157.3330   29.2850 C   0  0  0  0  0  0  0  0  0  0  0  0
   51.1050  156.1870   29.6350 C   0  0  0  0  0  0  0  0  0  0  0  0
   51.1340  155.0700   28.7960 C   0  0  0  0  0  0  0  0  0  0  0  0
   51.8740  155.0780   27.6050 C   0  0  0  0  0  0  0  0  0  0  0  0
   51.8850  153.9080   26.8180 N   0  0  0  0  0  0  0  0  0  0  0  0
   52.7530  153.5830   25.7640 C   0  0  0  0  0  0  0  0  0  0  0  0
   53.2710  154.6210   25.0590 N   0  0  0  0  0  0  0  0  0  0  0  0
   54.1170  154.3560   24.0440 C   0  0  0  0  0  0  0  0  0  0  0  0
   54.5520  153.1590   23.6180 N   0  0  0  0  0  0  0  0  0  0  0  0
   54.0430  152.1650   24.3590 C   0  0  0  0  0  0  0  0  0  0  0  0
   54.3270  150.8390   24.1780 N   0  0  0  0  0  0  0  0  0  0  0  0
   53.6640  150.0910   25.1170 C   0  0  0  0  0  0  0  0  0  0  0  0
   52.9430  150.9590   25.9090 C   0  0  0  0  0  0  0  0  0  0  0  0
   53.1650  152.2810   25.4260 C   0  0  0  0  0  0  0  0  0  0  0  0
   52.6220  156.2200   27.2930 C   0  0  0  0  0  0  0  0  0  0  0  0
   52.5980  157.3410   28.1280 C   0  0  0  0  0  0  0  0  0  0  0  0
   49.4419  162.2066   31.0145 H   0  0  0  0  0  0  0  0  0  0  0  0
   47.2958  160.9333   30.9588 H   0  0  0  0  0  0  0  0  0  0  0  0
   47.3078  158.4855   30.4773 H   0  0  0  0  0  0  0  0  0  0  0  0
   49.4651  157.3048   30.0571 H   0  0  0  0  0  0  0  0  0  0  0  0
   50.5208  156.1634   30.5667 H   0  0  0  0  0  0  0  0  0  0  0  0
   50.5669  154.1695   29.0744 H   0  0  0  0  0  0  0  0  0  0  0  0
   51.1990  153.2360   27.0350 H   0  0  0  0  0  0  0  0  0  0  0  0
   54.4991  155.2297   23.4957 H   0  0  0  0  0  0  0  0  0  0  0  0
   54.9170  150.4760   23.4780 H   0  0  0  0  0  0  0  0  0  0  0  0
   53.7009  148.9964   25.2196 H   0  0  0  0  0  0  0  0  0  0  0  0
   52.3083  150.6802   26.7631 H   0  0  0  0  0  0  0  0  0  0  0  0
   53.2357  156.2352   26.3802 H   0  0  0  0  0  0  0  0  0  0  0  0
   53.1928  158.2301   27.8716 H   0  0  0  0  0  0  0  0  0  0  0  0
  1  2  1  0
  2  3  2  0
  3  4  1  0
  4  5  2  0
  5  6  1  0
  6  7  2  0
  7  8  1  0
  8  9  1  0
  9 10  2  0
 10 11  1  0
 11 12  2  0
 12 13  1  0
 13 14  1  0
 14 15  2  0
 15 16  1  0
 16 17  2  0
 17 18  1  0
 18 19  1  0
 19 20  1  0
 20 21  2  0
 21 22  1  0
 12 23  1  0
 23 24  2  0
  7  2  1  0
 24  9  1  0
 22 14  1  0
 22 18  2  0
  3 25  1  0
  4 26  1  0
  5 27  1  0
  6 28  1  0
 10 29  1  0
 11 30  1  0
 13 31  1  0
 16 32  1  0
 19 33  1  0
 20 34  1  0
 21 35  1  0
 23 36  1  0
 24 37  1  0
M  END
>  <meeko>  (4) 
{"is_sidechain": [false], "free_energy": -10.06, "intermolecular_energy": -13.689, "internal_energy": 0.675}

$$$$
9IV_ttbk2_out
     RDKit          3D

 37 40  0  0  0  0  0  0  0  0999 V2000
   49.0070  161.0350   29.0890 Cl  0  0  0  0  0  0  0  0  0  0  0  0
   49.1220  160.8280   30.7980 C   0  0  0  0  0  0  0  0  0  0  0  0
   49.4300  161.9390   31.5870 C   0  0  0  0  0  0  0  0  0  0  0  0
   49.5300  161.8060   32.9740 C   0  0  0  0  0  0  0  0  0  0  0  0
   49.3150  160.5650   33.5740 C   0  0  0  0  0  0  0  0  0  0  0  0
   49.0070  159.4520   32.7890 C   0  0  0  0  0  0  0  0  0  0  0  0
   48.9280  159.5790   31.3970 C   0  0  0  0  0  0  0  0  0  0  0  0
   48.5850  158.5000   30.6100 O   0  0  0  0  0  0  0  0  0  0  0  0
   49.6150  157.7270   30.1270 C   0  0  0  0  0  0  0  0  0  0  0  0
   50.9120  158.2100   29.9470 C   0  0  0  0  0  0  0  0  0  0  0  0
   51.8970  157.3710   29.4210 C   0  0  0  0  0  0  0  0  0  0  0  0
   51.6050  156.0460   29.0670 C   0  0  0  0  0  0  0  0  0  0  0  0
   52.6370  155.2600   28.5130 N   0  0  0  0  0  0  0  0  0  0  0  0
   53.0040  155.1410   27.1640 C   0  0  0  0  0  0  0  0  0  0  0  0
   53.2760  156.2940   26.5020 N   0  0  0  0  0  0  0  0  0  0  0  0
   53.6430  156.2250   25.2070 C   0  0  0  0  0  0  0  0  0  0  0  0
   53.7960  155.1310   24.4440 N   0  0  0  0  0  0  0  0  0  0  0  0
   53.5490  154.0140   25.1430 C   0  0  0  0  0  0  0  0  0  0  0  0
   53.6500  152.7460   24.6400 N   0  0  0  0  0  0  0  0  0  0  0  0
   53.3550  151.8330   25.6200 C   0  0  0  0  0  0  0  0  0  0  0  0
   53.0570  152.5360   26.7690 C   0  0  0  0  0  0  0  0  0  0  0  0
   53.1630  153.9260   26.4720 C   0  0  0  0  0  0  0  0  0  0  0  0
   50.2890  155.5920   29.2120 C   0  0  0  0  0  0  0  0  0  0  0  0
   49.2980  156.4270   29.7380 C   0  0  0  0  0  0  0  0  0  0  0  0
   49.5939  162.9193   31.1157 H   0  0  0  0  0  0  0  0  0  0  0  0
   49.7784  162.6804   33.5935 H   0  0  0  0  0  0  0  0  0  0  0  0
   49.3882  160.4632   34.6668 H   0  0  0  0  0  0  0  0  0  0  0  0
   48.8266  158.4763   33.2639 H   0  0  0  0  0  0  0  0  0  0  0  0
   51.1575  159.2474   30.2183 H   0  0  0  0  0  0  0  0  0  0  0  0
   52.9181  157.7558   29.2822 H   0  0  0  0  0  0  0  0  0  0  0  0
   53.1650  154.7300   29.1530 H   0  0  0  0  0  0  0  0  0  0  0  0
   53.8425  157.1871   24.7125 H   0  0  0  0  0  0  0  0  0  0  0  0
   53.8960  152.5220   23.7130 H   0  0  0  0  0  0  0  0  0  0  0  0
   53.3559  150.7385   25.5098 H   0  0  0  0  0  0  0  0  0  0  0  0
   52.7856  152.1008   27.7421 H   0  0  0  0  0  0  0  0  0  0  0  0
   50.0312  154.5665   28.9087 H   0  0  0  0  0  0  0  0  0  0  0  0
   48.2675  156.0573   29.8447 H   0  0  0  0  0  0  0  0  0  0  0  0
  1  2  1  0
  2  3  2  0
  3  4  1  0
  4  5  2  0
  5  6  1  0
  6  7  2  0
  7  8  1  0
  8  9  1  0
  9 10  2  0
 10 11  1  0
 11 12  2  0
 12 13  1  0
 13 14  1  0
 14 15  2  0
 15 16  1  0
 16 17  2  0
 17 18  1  0
 18 19  1  0
 19 20  1  0
 20 21  2  0
 21 22  1  0
 12 23  1  0
 23 24  2  0
  7  2  1  0
 24  9  1  0
 22 14  1  0
 22 18  2  0
  3 25  1  0
  4 26  1  0
  5 27  1  0
  6 28  1  0
 10 29  1  0
 11 30  1  0
 13 31  1  0
 16 32  1  0
 19 33  1  0
 20 34  1  0
 21 35  1  0
 23 36  1  0
 24 37  1  0
M  END
>  <meeko>  (5) 
{"is_sidechain": [false], "free_energy": -9.711, "intermolecular_energy": -12.073, "internal_energy": -0.51}

$$$$
9IV_ttbk2_out
     RDKit          3D

 37 40  0  0  0  0  0  0  0  0999 V2000
   54.8290  153.9430   23.4140 Cl  0  0  0  0  0  0  0  0  0  0  0  0
   54.0240  152.7910   24.4140 C   0  0  0  0  0  0  0  0  0  0  0  0
   54.5240  151.4880   24.4680 C   0  0  0  0  0  0  0  0  0  0  0  0
   53.8960  150.5310   25.2690 C   0  0  0  0  0  0  0  0  0  0  0  0
   52.7730  150.8760   26.0200 C   0  0  0  0  0  0  0  0  0  0  0  0
   52.2700  152.1770   25.9700 C   0  0  0  0  0  0  0  0  0  0  0  0
   52.8850  153.1330   25.1510 C   0  0  0  0  0  0  0  0  0  0  0  0
   52.4270  154.4320   25.1190 O   0  0  0  0  0  0  0  0  0  0  0  0
   52.3660  155.1030   26.3190 C   0  0  0  0  0  0  0  0  0  0  0  0
   51.6090  154.6580   27.4030 C   0  0  0  0  0  0  0  0  0  0  0  0
   51.5740  155.4130   28.5790 C   0  0  0  0  0  0  0  0  0  0  0  0
   52.2860  156.6160   28.6880 C   0  0  0  0  0  0  0  0  0  0  0  0
   52.1840  157.3450   29.8910 N   0  0  0  0  0  0  0  0  0  0  0  0
   51.5650  158.5880   30.0990 C   0  0  0  0  0  0  0  0  0  0  0  0
   52.3720  159.6790   30.0860 N   0  0  0  0  0  0  0  0  0  0  0  0
   51.8190  160.8940   30.2710 C   0  0  0  0  0  0  0  0  0  0  0  0
   50.5250  161.1970   30.4640 N   0  0  0  0  0  0  0  0  0  0  0  0
   49.7600  160.0960   30.4380 C   0  0  0  0  0  0  0  0  0  0  0  0
   48.4000  160.0940   30.5790 N   0  0  0  0  0  0  0  0  0  0  0  0
   47.9260  158.8110   30.4790 C   0  0  0  0  0  0  0  0  0  0  0  0
   49.0070  157.9800   30.2740 C   0  0  0  0  0  0  0  0  0  0  0  0
   50.1820  158.7870   30.2600 C   0  0  0  0  0  0  0  0  0  0  0  0
   53.0040  157.0690   27.5740 C   0  0  0  0  0  0  0  0  0  0  0  0
   53.0440  156.3190   26.3950 C   0  0  0  0  0  0  0  0  0  0  0  0
   55.4125  151.2152   23.8797 H   0  0  0  0  0  0  0  0  0  0  0  0
   54.2880  149.5039   25.3073 H   0  0  0  0  0  0  0  0  0  0  0  0
   52.2827  150.1217   26.6529 H   0  0  0  0  0  0  0  0  0  0  0  0
   51.3918  152.4514   26.5729 H   0  0  0  0  0  0  0  0  0  0  0  0
   51.0425  153.7177   27.3327 H   0  0  0  0  0  0  0  0  0  0  0  0
   50.9783  155.0576   29.4327 H   0  0  0  0  0  0  0  0  0  0  0  0
   52.5980  156.9310   30.6820 H   0  0  0  0  0  0  0  0  0  0  0  0
   52.5157  161.7452   30.2629 H   0  0  0  0  0  0  0  0  0  0  0  0
   47.8440  160.8920   30.7310 H   0  0  0  0  0  0  0  0  0  0  0  0
   46.8730  158.5008   30.5496 H   0  0  0  0  0  0  0  0  0  0  0  0
   48.9694  156.8883   30.1443 H   0  0  0  0  0  0  0  0  0  0  0  0
   53.5429  158.0265   27.6275 H   0  0  0  0  0  0  0  0  0  0  0  0
   53.6103  156.6881   25.5272 H   0  0  0  0  0  0  0  0  0  0  0  0
  1  2  1  0
  2  3  2  0
  3  4  1  0
  4  5  2  0
  5  6  1  0
  6  7  2  0
  7  8  1  0
  8  9  1  0
  9 10  2  0
 10 11  1  0
 11 12  2  0
 12 13  1  0
 13 14  1  0
 14 15  2  0
 15 16  1  0
 16 17  2  0
 17 18  1  0
 18 19  1  0
 19 20  1  0
 20 21  2  0
 21 22  1  0
 12 23  1  0
 23 24  2  0
  7  2  1  0
 24  9  1  0
 22 14  1  0
 22 18  2  0
  3 25  1  0
  4 26  1  0
  5 27  1  0
  6 28  1  0
 10 29  1  0
 11 30  1  0
 13 31  1  0
 16 32  1  0
 19 33  1  0
 20 34  1  0
 21 35  1  0
 23 36  1  0
 24 37  1  0
M  END
>  <meeko>  (6) 
{"is_sidechain": [false], "free_energy": -9.387, "intermolecular_energy": -11.839, "internal_energy": -0.343}

$$$$
9IV_ttbk2_out
     RDKit          3D

 37 40  0  0  0  0  0  0  0  0999 V2000
   46.6750  159.8170   31.9100 Cl  0  0  0  0  0  0  0  0  0  0  0  0
   48.1190  160.6350   32.3820 C   0  0  0  0  0  0  0  0  0  0  0  0
   48.1970  161.1610   33.6730 C   0  0  0  0  0  0  0  0  0  0  0  0
   49.3520  161.8280   34.0870 C   0  0  0  0  0  0  0  0  0  0  0  0
   50.4320  161.9640   33.2140 C   0  0  0  0  0  0  0  0  0  0  0  0
   50.3580  161.4380   31.9230 C   0  0  0  0  0  0  0  0  0  0  0  0
   49.1920  160.7880   31.4990 C   0  0  0  0  0  0  0  0  0  0  0  0
   49.1170  160.2290   30.2410 O   0  0  0  0  0  0  0  0  0  0  0  0
   49.9270  159.1470   29.9890 C   0  0  0  0  0  0  0  0  0  0  0  0
   51.2690  159.2680   29.6260 C   0  0  0  0  0  0  0  0  0  0  0  0
   52.0190  158.1210   29.3550 C   0  0  0  0  0  0  0  0  0  0  0  0
   51.4450  156.8440   29.4380 C   0  0  0  0  0  0  0  0  0  0  0  0
   52.2490  155.7290   29.1230 N   0  0  0  0  0  0  0  0  0  0  0  0
   52.6550  155.2870   27.8540 C   0  0  0  0  0  0  0  0  0  0  0  0
   53.2770  156.1990   27.0620 N   0  0  0  0  0  0  0  0  0  0  0  0
   53.6930  155.8150   25.8390 C   0  0  0  0  0  0  0  0  0  0  0  0
   53.5890  154.6040   25.2680 N   0  0  0  0  0  0  0  0  0  0  0  0
   52.9990  153.7270   26.0940 C   0  0  0  0  0  0  0  0  0  0  0  0
   52.7790  152.4100   25.7970 N   0  0  0  0  0  0  0  0  0  0  0  0
   52.1820  151.7890   26.8640 C   0  0  0  0  0  0  0  0  0  0  0  0
   52.0150  152.7310   27.8570 C   0  0  0  0  0  0  0  0  0  0  0  0
   52.5190  153.9730   27.3710 C   0  0  0  0  0  0  0  0  0  0  0  0
   50.0860  156.7450   29.7600 C   0  0  0  0  0  0  0  0  0  0  0  0
   49.3300  157.8880   30.0330 C   0  0  0  0  0  0  0  0  0  0  0  0
   47.3485  161.0500   34.3642 H   0  0  0  0  0  0  0  0  0  0  0  0
   49.4104  162.2467   35.1025 H   0  0  0  0  0  0  0  0  0  0  0  0
   51.3425  162.4861   33.5433 H   0  0  0  0  0  0  0  0  0  0  0  0
   51.2145  161.5339   31.2395 H   0  0  0  0  0  0  0  0  0  0  0  0
   51.7342  160.2621   29.5536 H   0  0  0  0  0  0  0  0  0  0  0  0
   53.0772  158.2210   29.0718 H   0  0  0  0  0  0  0  0  0  0  0  0
   52.5630  155.1940   29.8870 H   0  0  0  0  0  0  0  0  0  0  0  0
   54.1795  156.5922   25.2313 H   0  0  0  0  0  0  0  0  0  0  0  0
   53.0140  151.9740   24.9470 H   0  0  0  0  0  0  0  0  0  0  0  0
   51.8891  150.7301   26.9180 H   0  0  0  0  0  0  0  0  0  0  0  0
   51.5716  152.5554   28.8482 H   0  0  0  0  0  0  0  0  0  0  0  0
   49.6076  155.7552   29.7985 H   0  0  0  0  0  0  0  0  0  0  0  0
   48.2629  157.7943   30.2829 H   0  0  0  0  0  0  0  0  0  0  0  0
  1  2  1  0
  2  3  2  0
  3  4  1  0
  4  5  2  0
  5  6  1  0
  6  7  2  0
  7  8  1  0
  8  9  1  0
  9 10  2  0
 10 11  1  0
 11 12  2  0
 12 13  1  0
 13 14  1  0
 14 15  2  0
 15 16  1  0
 16 17  2  0
 17 18  1  0
 18 19  1  0
 19 20  1  0
 20 21  2  0
 21 22  1  0
 12 23  1  0
 23 24  2  0
  7  2  1  0
 24  9  1  0
 22 14  1  0
 22 18  2  0
  3 25  1  0
  4 26  1  0
  5 27  1  0
  6 28  1  0
 10 29  1  0
 11 30  1  0
 13 31  1  0
 16 32  1  0
 19 33  1  0
 20 34  1  0
 21 35  1  0
 23 36  1  0
 24 37  1  0
M  END
>  <meeko>  (7) 
{"is_sidechain": [false], "free_energy": -9.356, "intermolecular_energy": -11.705, "internal_energy": -0.439}

$$$$
9IV_ttbk2_out
     RDKit          3D

 37 40  0  0  0  0  0  0  0  0999 V2000
   53.0720  151.1940   25.8040 Cl  0  0  0  0  0  0  0  0  0  0  0  0
   53.6500  152.7340   25.2840 C   0  0  0  0  0  0  0  0  0  0  0  0
   54.4430  152.7970   24.1350 C   0  0  0  0  0  0  0  0  0  0  0  0
   54.9260  154.0280   23.6860 C   0  0  0  0  0  0  0  0  0  0  0  0
   54.6130  155.1970   24.3810 C   0  0  0  0  0  0  0  0  0  0  0  0
   53.8210  155.1380   25.5290 C   0  0  0  0  0  0  0  0  0  0  0  0
   53.3530  153.9030   25.9930 C   0  0  0  0  0  0  0  0  0  0  0  0
   52.5380  153.8300   27.1010 O   0  0  0  0  0  0  0  0  0  0  0  0
   52.2960  155.0030   27.7770 C   0  0  0  0  0  0  0  0  0  0  0  0
   52.8530  156.2270   27.4030 C   0  0  0  0  0  0  0  0  0  0  0  0
   52.5840  157.3700   28.1610 C   0  0  0  0  0  0  0  0  0  0  0  0
   51.7620  157.3100   29.2950 C   0  0  0  0  0  0  0  0  0  0  0  0
   51.5550  158.4940   30.0330 N   0  0  0  0  0  0  0  0  0  0  0  0
   50.3360  159.0480   30.4540 C   0  0  0  0  0  0  0  0  0  0  0  0
   49.2100  158.3680   30.1190 N   0  0  0  0  0  0  0  0  0  0  0  0
   48.0180  158.8590   30.5120 C   0  0  0  0  0  0  0  0  0  0  0  0
   47.7710  159.9670   31.2290 N   0  0  0  0  0  0  0  0  0  0  0  0
   48.9100  160.5910   31.5660 C   0  0  0  0  0  0  0  0  0  0  0  0
   48.9760  161.7310   32.3180 N   0  0  0  0  0  0  0  0  0  0  0  0
   50.2870  162.0910   32.5000 C   0  0  0  0  0  0  0  0  0  0  0  0
   51.0700  161.1620   31.8470 C   0  0  0  0  0  0  0  0  0  0  0  0
   50.2020  160.2100   31.2360 C   0  0  0  0  0  0  0  0  0  0  0  0
   51.2490  156.0660   29.6810 C   0  0  0  0  0  0  0  0  0  0  0  0
   51.5140  154.9180   28.9280 C   0  0  0  0  0  0  0  0  0  0  0  0
   54.6868  151.8766   23.5841 H   0  0  0  0  0  0  0  0  0  0  0  0
   55.5536  154.0762   22.7839 H   0  0  0  0  0  0  0  0  0  0  0  0
   54.9909  156.1663   24.0237 H   0  0  0  0  0  0  0  0  0  0  0  0
   53.5648  156.0616   26.0688 H   0  0  0  0  0  0  0  0  0  0  0  0
   53.5005  156.2917   26.5161 H   0  0  0  0  0  0  0  0  0  0  0  0
   53.0246  158.3328   27.8628 H   0  0  0  0  0  0  0  0  0  0  0  0
   52.3660  158.9940   30.2830 H   0  0  0  0  0  0  0  0  0  0  0  0
   47.1352  158.2781   30.2065 H   0  0  0  0  0  0  0  0  0  0  0  0
   48.2000  162.2200   32.6750 H   0  0  0  0  0  0  0  0  0  0  0  0
   50.6486  162.9630   33.0647 H   0  0  0  0  0  0  0  0  0  0  0  0
   52.1692  161.1565   31.8050 H   0  0  0  0  0  0  0  0  0  0  0  0
   50.6302  155.9907   30.5873 H   0  0  0  0  0  0  0  0  0  0  0  0
   51.1051  153.9470   29.2441 H   0  0  0  0  0  0  0  0  0  0  0  0
  1  2  1  0
  2  3  2  0
  3  4  1  0
  4  5  2  0
  5  6  1  0
  6  7  2  0
  7  8  1  0
  8  9  1  0
  9 10  2  0
 10 11  1  0
 11 12  2  0
 12 13  1  0
 13 14  1  0
 14 15  2  0
 15 16  1  0
 16 17  2  0
 17 18  1  0
 18 19  1  0
 19 20  1  0
 20 21  2  0
 21 22  1  0
 12 23  1  0
 23 24  2  0
  7  2  1  0
 24  9  1  0
 22 14  1  0
 22 18  2  0
  3 25  1  0
  4 26  1  0
  5 27  1  0
  6 28  1  0
 10 29  1  0
 11 30  1  0
 13 31  1  0
 16 32  1  0
 19 33  1  0
 20 34  1  0
 21 35  1  0
 23 36  1  0
 24 37  1  0
M  END
>  <meeko>  (8) 
{"is_sidechain": [false], "free_energy": -9.258, "intermolecular_energy": -13.253, "internal_energy": 1.229}

$$$$
9IV_ttbk2_out
     RDKit          3D

 37 40  0  0  0  0  0  0  0  0999 V2000
   52.2460  150.9140   26.7140 Cl  0  0  0  0  0  0  0  0  0  0  0  0
   52.9640  152.1330   25.7260 C   0  0  0  0  0  0  0  0  0  0  0  0
   53.8530  151.7420   24.7220 C   0  0  0  0  0  0  0  0  0  0  0  0
   54.4510  152.7040   23.9040 C   0  0  0  0  0  0  0  0  0  0  0  0
   54.1560  154.0550   24.0840 C   0  0  0  0  0  0  0  0  0  0  0  0
   53.2670  154.4500   25.0860 C   0  0  0  0  0  0  0  0  0  0  0  0
   52.6830  153.4890   25.9210 C   0  0  0  0  0  0  0  0  0  0  0  0
   51.7740  153.8570   26.8890 O   0  0  0  0  0  0  0  0  0  0  0  0
   51.9840  155.0630   27.5180 C   0  0  0  0  0  0  0  0  0  0  0  0
   52.6380  156.1350   26.9110 C   0  0  0  0  0  0  0  0  0  0  0  0
   52.8410  157.3170   27.6280 C   0  0  0  0  0  0  0  0  0  0  0  0
   52.3980  157.4460   28.9520 C   0  0  0  0  0  0  0  0  0  0  0  0
   52.6610  158.6550   29.6290 N   0  0  0  0  0  0  0  0  0  0  0  0
   51.7470  159.4960   30.2830 C   0  0  0  0  0  0  0  0  0  0  0  0
   52.2360  160.6650   30.7700 N   0  0  0  0  0  0  0  0  0  0  0  0
   51.3910  161.5080   31.3960 C   0  0  0  0  0  0  0  0  0  0  0  0
   50.0730  161.3600   31.6060 N   0  0  0  0  0  0  0  0  0  0  0  0
   49.6250  160.2090   31.0820 C   0  0  0  0  0  0  0  0  0  0  0  0
   48.3220  159.7980   31.1170 N   0  0  0  0  0  0  0  0  0  0  0  0
   48.1980  158.5940   30.4710 C   0  0  0  0  0  0  0  0  0  0  0  0
   49.4500  158.2320   30.0190 C   0  0  0  0  0  0  0  0  0  0  0  0
   50.3690  159.2470   30.4160 C   0  0  0  0  0  0  0  0  0  0  0  0
   51.7830  156.3440   29.5590 C   0  0  0  0  0  0  0  0  0  0  0  0
   51.5770  155.1580   28.8480 C   0  0  0  0  0  0  0  0  0  0  0  0
   54.0824  150.6762   24.5753 H   0  0  0  0  0  0  0  0  0  0  0  0
   55.1552  152.3954   23.1173 H   0  0  0  0  0  0  0  0  0  0  0  0
   54.6241  154.8105   23.4359 H   0  0  0  0  0  0  0  0  0  0  0  0
   53.0256  155.5149   25.2193 H   0  0  0  0  0  0  0  0  0  0  0  0
   52.9922  156.0504   25.8730 H   0  0  0  0  0  0  0  0  0  0  0  0
   53.3569  158.1603   27.1457 H   0  0  0  0  0  0  0  0  0  0  0  0
   53.6020  158.9440   29.6450 H   0  0  0  0  0  0  0  0  0  0  0  0
   51.8379  162.4351   31.7842 H   0  0  0  0  0  0  0  0  0  0  0  0
   47.5830  160.2900   31.5420 H   0  0  0  0  0  0  0  0  0  0  0  0
   47.2685  158.0211   30.3376 H   0  0  0  0  0  0  0  0  0  0  0  0
   49.6957  157.3216   29.4526 H   0  0  0  0  0  0  0  0  0  0  0  0
   51.4581  156.4123   30.6077 H   0  0  0  0  0  0  0  0  0  0  0  0
   51.0938  154.2998   29.3380 H   0  0  0  0  0  0  0  0  0  0  0  0
  1  2  1  0
  2  3  2  0
  3  4  1  0
  4  5  2  0
  5  6  1  0
  6  7  2  0
  7  8  1  0
  8  9  1  0
  9 10  2  0
 10 11  1  0
 11 12  2  0
 12 13  1  0
 13 14  1  0
 14 15  2  0
 15 16  1  0
 16 17  2  0
 17 18  1  0
 18 19  1  0
 19 20  1  0
 20 21  2  0
 21 22  1  0
 12 23  1  0
 23 24  2  0
  7  2  1  0
 24  9  1  0
 22 14  1  0
 22 18  2  0
  3 25  1  0
  4 26  1  0
  5 27  1  0
  6 28  1  0
 10 29  1  0
 11 30  1  0
 13 31  1  0
 16 32  1  0
 19 33  1  0
 20 34  1  0
 21 35  1  0
 23 36  1  0
 24 37  1  0
M  END
>  <meeko>  (9) 
{"is_sidechain": [false], "free_energy": -8.893, "intermolecular_energy": -12.738, "internal_energy": 1.165}

$$$$
