clorgyline_out
     RDKit          3D

 33 33  0  0  0  0  0  0  0  0999 V2000
   54.1840  149.7890   24.6950 C   0  0  0  0  0  0  0  0  0  0  0  0
   54.1750  150.9820   24.5570 C   0  0  0  0  0  0  0  0  0  0  0  0
   54.1600  152.4450   24.3860 C   0  0  0  0  0  0  0  0  0  0  0  0
   54.0470  153.2120   25.6400 N   0  0  2  0  0  0  0  0  0  0  0  0
   52.9250  152.7430   26.4540 C   0  0  0  0  0  0  0  0  0  0  0  0
   53.9960  154.6630   25.3900 C   0  0  0  0  0  0  0  0  0  0  0  0
   52.7730  155.3250   26.0410 C   0  0  0  0  0  0  0  0  0  0  0  0
   53.1510  156.6100   26.7770 C   0  0  0  0  0  0  0  0  0  0  0  0
   53.0860  156.3710   28.1810 O   0  0  0  0  0  0  0  0  0  0  0  0
   52.1200  157.0210   28.9020 C   0  0  0  0  0  0  0  0  0  0  0  0
   52.1960  158.3580   29.3040 C   0  0  0  0  0  0  0  0  0  0  0  0
   51.1570  158.9340   30.0440 C   0  0  0  0  0  0  0  0  0  0  0  0
   50.0410  158.1740   30.3890 C   0  0  0  0  0  0  0  0  0  0  0  0
   48.7700  158.8900   31.3000 Cl  0  0  0  0  0  0  0  0  0  0  0  0
   49.9490  156.8420   30.0010 C   0  0  0  0  0  0  0  0  0  0  0  0
   50.9870  156.2690   29.2620 C   0  0  0  0  0  0  0  0  0  0  0  0
   50.8270  154.6080   28.8000 Cl  0  0  0  0  0  0  0  0  0  0  0  0
   54.1922  148.6963   24.8214 H   0  0  0  0  0  0  0  0  0  0  0  0
   55.0944  152.7409   23.8867 H   0  0  0  0  0  0  0  0  0  0  0  0
   53.2608  152.6792   23.7972 H   0  0  0  0  0  0  0  0  0  0  0  0
   54.8950  153.0440   26.1820 H   0  0  0  0  0  0  0  0  0  0  0  0
   53.1761  152.8480   27.5198 H   0  0  0  0  0  0  0  0  0  0  0  0
   52.0313  153.3429   26.2270 H   0  0  0  0  0  0  0  0  0  0  0  0
   52.7241  151.6856   26.2270 H   0  0  0  0  0  0  0  0  0  0  0  0
   54.9071  155.1244   25.7986 H   0  0  0  0  0  0  0  0  0  0  0  0
   53.9212  154.8143   24.3030 H   0  0  0  0  0  0  0  0  0  0  0  0
   52.0387  155.5654   25.2580 H   0  0  0  0  0  0  0  0  0  0  0  0
   52.3515  154.6213   26.7738 H   0  0  0  0  0  0  0  0  0  0  0  0
   54.1729  156.9081   26.4996 H   0  0  0  0  0  0  0  0  0  0  0  0
   52.4553  157.4166   26.5024 H   0  0  0  0  0  0  0  0  0  0  0  0
   53.0770  158.9603   29.0373 H   0  0  0  0  0  0  0  0  0  0  0  0
   51.2214  159.9876   30.3536 H   0  0  0  0  0  0  0  0  0  0  0  0
   49.0666  156.2445   30.2735 H   0  0  0  0  0  0  0  0  0  0  0  0
  1  2  3  0
  2  3  1  0
  3  4  1  0
  4  5  1  0
  4  6  1  0
  6  7  1  0
  7  8  1  0
  8  9  1  0
  9 10  1  0
 10 11  2  0
 11 12  1  0
 12 13  2  0
 13 14  1  0
 13 15  1  0
 15 16  2  0
 16 17  1  0
 16 10  1  0
  1 18  1  0
  3 19  1  0
  3 20  1  0
  4 21  1  1
  5 22  1  0
  5 23  1  0
  5 24  1  0
  6 25  1  0
  6 26  1  0
  7 27  1  0
  7 28  1  0
  8 29  1  0
  8 30  1  0
 11 31  1  0
 12 32  1  0
 15 33  1  0
M  CHG  1   4   1
M  END
>  <meeko>  (1) 
{"is_sidechain": [false], "free_energy": -7.558, "intermolecular_energy": -10.209, "internal_energy": -0.44}

$$$$
clorgyline_out
     RDKit          3D

 33 33  0  0  0  0  0  0  0  0999 V2000
   54.1820  153.2930   23.6700 C   0  0  0  0  0  0  0  0  0  0  0  0
   53.5130  153.9720   24.4010 C   0  0  0  0  0  0  0  0  0  0  0  0
   52.6900  154.8020   25.2970 C   0  0  0  0  0  0  0  0  0  0  0  0
   53.2920  155.0680   26.6170 N   0  0  2  0  0  0  0  0  0  0  0  0
   52.9020  154.0530   27.5960 C   0  0  0  0  0  0  0  0  0  0  0  0
   53.0100  156.4380   27.0800 C   0  0  0  0  0  0  0  0  0  0  0  0
   52.2480  156.4580   28.4130 C   0  0  0  0  0  0  0  0  0  0  0  0
   52.5420  157.7260   29.2130 C   0  0  0  0  0  0  0  0  0  0  0  0
   51.4820  158.6570   29.0050 O   0  0  0  0  0  0  0  0  0  0  0  0
   51.0180  159.3590   30.0850 C   0  0  0  0  0  0  0  0  0  0  0  0
   51.6770  160.4480   30.6650 C   0  0  0  0  0  0  0  0  0  0  0  0
   51.1240  161.1000   31.7730 C   0  0  0  0  0  0  0  0  0  0  0  0
   49.9140  160.6630   32.3070 C   0  0  0  0  0  0  0  0  0  0  0  0
   49.2430  161.4700   33.6700 Cl  0  0  0  0  0  0  0  0  0  0  0  0
   49.2460  159.5810   31.7460 C   0  0  0  0  0  0  0  0  0  0  0  0
   49.7990  158.9310   30.6410 C   0  0  0  0  0  0  0  0  0  0  0  0
   48.9310  157.5900   29.9740 Cl  0  0  0  0  0  0  0  0  0  0  0  0
   54.7946  152.6712   23.0006 H   0  0  0  0  0  0  0  0  0  0  0  0
   52.5110  155.7675   24.8013 H   0  0  0  0  0  0  0  0  0  0  0  0
   51.7668  154.2343   25.4854 H   0  0  0  0  0  0  0  0  0  0  0  0
   54.3050  155.0030   26.5130 H   0  0  0  0  0  0  0  0  0  0  0  0
   53.0532  154.4464   28.6121 H   0  0  0  0  0  0  0  0  0  0  0  0
   51.8414  153.7969   27.4560 H   0  0  0  0  0  0  0  0  0  0  0  0
   53.5182  153.1526   27.4560 H   0  0  0  0  0  0  0  0  0  0  0  0
   53.9636  156.9708   27.2097 H   0  0  0  0  0  0  0  0  0  0  0  0
   52.3771  156.9250   26.3235 H   0  0  0  0  0  0  0  0  0  0  0  0
   51.1685  156.4085   28.2073 H   0  0  0  0  0  0  0  0  0  0  0  0
   52.5759  155.5931   29.0084 H   0  0  0  0  0  0  0  0  0  0  0  0
   52.6133  157.4800   30.2828 H   0  0  0  0  0  0  0  0  0  0  0  0
   53.4948  158.1644   28.8815 H   0  0  0  0  0  0  0  0  0  0  0  0
   52.6345  160.7936   30.2482 H   0  0  0  0  0  0  0  0  0  0  0  0
   51.6452  161.9581   32.2225 H   0  0  0  0  0  0  0  0  0  0  0  0
   48.2897  159.2396   32.1690 H   0  0  0  0  0  0  0  0  0  0  0  0
  1  2  3  0
  2  3  1  0
  3  4  1  0
  4  5  1  0
  4  6  1  0
  6  7  1  0
  7  8  1  0
  8  9  1  0
  9 10  1  0
 10 11  2  0
 11 12  1  0
 12 13  2  0
 13 14  1  0
 13 15  1  0
 15 16  2  0
 16 17  1  0
 16 10  1  0
  1 18  1  0
  3 19  1  0
  3 20  1  0
  4 21  1  6
  5 22  1  0
  5 23  1  0
  5 24  1  0
  6 25  1  0
  6 26  1  0
  7 27  1  0
  7 28  1  0
  8 29  1  0
  8 30  1  0
 11 31  1  0
 12 32  1  0
 15 33  1  0
M  CHG  1   4   1
M  END
>  <meeko>  (2) 
{"is_sidechain": [false], "free_energy": -7.557, "intermolecular_energy": -10.264, "internal_energy": -0.384}

$$$$
clorgyline_out
     RDKit          3D

 33 33  0  0  0  0  0  0  0  0999 V2000
   47.1710  159.7910   31.5440 C   0  0  0  0  0  0  0  0  0  0  0  0
   48.1900  160.0920   30.9860 C   0  0  0  0  0  0  0  0  0  0  0  0
   49.4400  160.4660   30.3020 C   0  0  0  0  0  0  0  0  0  0  0  0
   50.6720  160.0560   30.9990 N   0  0  2  0  0  0  0  0  0  0  0  0
   51.2100  161.1430   31.8170 C   0  0  0  0  0  0  0  0  0  0  0  0
   51.6690  159.5030   30.0660 C   0  0  0  0  0  0  0  0  0  0  0  0
   51.3760  158.0410   29.6970 C   0  0  0  0  0  0  0  0  0  0  0  0
   52.5270  157.4150   28.9110 C   0  0  0  0  0  0  0  0  0  0  0  0
   52.2010  156.0570   28.6220 O   0  0  0  0  0  0  0  0  0  0  0  0
   52.6360  155.5280   27.4360 C   0  0  0  0  0  0  0  0  0  0  0  0
   53.1150  156.2820   26.3600 C   0  0  0  0  0  0  0  0  0  0  0  0
   53.5340  155.6480   25.1850 C   0  0  0  0  0  0  0  0  0  0  0  0
   53.4720  154.2600   25.0790 C   0  0  0  0  0  0  0  0  0  0  0  0
   53.9880  153.4910   23.6300 Cl  0  0  0  0  0  0  0  0  0  0  0  0
   52.9960  153.4940   26.1370 C   0  0  0  0  0  0  0  0  0  0  0  0
   52.5780  154.1280   27.3100 C   0  0  0  0  0  0  0  0  0  0  0  0
   51.9950  153.1340   28.6020 Cl  0  0  0  0  0  0  0  0  0  0  0  0
   46.2370  159.5151   32.0554 H   0  0  0  0  0  0  0  0  0  0  0  0
   49.4384  159.9986   29.3063 H   0  0  0  0  0  0  0  0  0  0  0  0
   49.4561  161.5653   30.2652 H   0  0  0  0  0  0  0  0  0  0  0  0
   50.4270  159.2990   31.6390 H   0  0  0  0  0  0  0  0  0  0  0  0
   51.0876  160.8957   32.8818 H   0  0  0  0  0  0  0  0  0  0  0  0
   52.2784  161.2769   31.5921 H   0  0  0  0  0  0  0  0  0  0  0  0
   50.6685  162.0737   31.5921 H   0  0  0  0  0  0  0  0  0  0  0  0
   51.6661  160.1070   29.1467 H   0  0  0  0  0  0  0  0  0  0  0  0
   52.6491  159.5338   30.5645 H   0  0  0  0  0  0  0  0  0  0  0  0
   51.2201  157.4645   30.6208 H   0  0  0  0  0  0  0  0  0  0  0  0
   50.4771  158.0208   29.0633 H   0  0  0  0  0  0  0  0  0  0  0  0
   52.6766  157.9673   27.9715 H   0  0  0  0  0  0  0  0  0  0  0  0
   53.4523  157.4592   29.5042 H   0  0  0  0  0  0  0  0  0  0  0  0
   53.1626  157.3782   26.4376 H   0  0  0  0  0  0  0  0  0  0  0  0
   53.9130  156.2465   24.3435 H   0  0  0  0  0  0  0  0  0  0  0  0
   52.9488  152.3983   26.0515 H   0  0  0  0  0  0  0  0  0  0  0  0
  1  2  3  0
  2  3  1  0
  3  4  1  0
  4  5  1  0
  4  6  1  0
  6  7  1  0
  7  8  1  0
  8  9  1  0
  9 10  1  0
 10 11  2  0
 11 12  1  0
 12 13  2  0
 13 14  1  0
 13 15  1  0
 15 16  2  0
 16 17  1  0
 16 10  1  0
  1 18  1  0
  3 19  1  0
  3 20  1  0
  4 21  1  1
  5 22  1  0
  5 23  1  0
  5 24  1  0
  6 25  1  0
  6 26  1  0
  7 27  1  0
  7 28  1  0
  8 29  1  0
  8 30  1  0
 11 31  1  0
 12 32  1  0
 15 33  1  0
M  CHG  1   4   1
M  END
>  <meeko>  (3) 
{"is_sidechain": [false], "free_energy": -7.512, "intermolecular_energy": -10.245, "internal_energy": -0.342}

$$$$
clorgyline_out
     RDKit          3D

 33 33  0  0  0  0  0  0  0  0999 V2000
   54.0910  153.2070   23.6030 C   0  0  0  0  0  0  0  0  0  0  0  0
   53.7520  153.5140   24.7130 C   0  0  0  0  0  0  0  0  0  0  0  0
   53.3400  153.8910   26.0760 C   0  0  0  0  0  0  0  0  0  0  0  0
   52.6650  155.1970   26.1780 N   0  0  2  0  0  0  0  0  0  0  0  0
   53.4090  156.2390   25.4700 C   0  0  0  0  0  0  0  0  0  0  0  0
   52.3800  155.5580   27.5770 C   0  0  0  0  0  0  0  0  0  0  0  0
   52.6410  157.0450   27.8620 C   0  0  0  0  0  0  0  0  0  0  0  0
   52.2440  157.4250   29.2880 C   0  0  0  0  0  0  0  0  0  0  0  0
   52.0160  158.8320   29.3410 O   0  0  0  0  0  0  0  0  0  0  0  0
   51.0460  159.2960   30.1880 C   0  0  0  0  0  0  0  0  0  0  0  0
   49.8420  158.6340   30.4530 C   0  0  0  0  0  0  0  0  0  0  0  0
   48.9080  159.1930   31.3330 C   0  0  0  0  0  0  0  0  0  0  0  0
   49.1710  160.4150   31.9470 C   0  0  0  0  0  0  0  0  0  0  0  0
   48.0160  161.0930   33.0260 Cl  0  0  0  0  0  0  0  0  0  0  0  0
   50.3610  161.0890   31.6940 C   0  0  0  0  0  0  0  0  0  0  0  0
   51.2920  160.5310   30.8160 C   0  0  0  0  0  0  0  0  0  0  0  0
   52.7600  161.4040   30.5330 Cl  0  0  0  0  0  0  0  0  0  0  0  0
   54.4016  152.9257   22.5860 H   0  0  0  0  0  0  0  0  0  0  0  0
   52.6514  153.1196   26.4512 H   0  0  0  0  0  0  0  0  0  0  0  0
   54.2638  153.9726   26.6676 H   0  0  0  0  0  0  0  0  0  0  0  0
   51.7600  155.1150   25.7130 H   0  0  0  0  0  0  0  0  0  0  0  0
   53.8871  156.9086   26.2001 H   0  0  0  0  0  0  0  0  0  0  0  0
   54.1806  155.7740   24.8388 H   0  0  0  0  0  0  0  0  0  0  0  0
   52.7187  156.8178   24.8388 H   0  0  0  0  0  0  0  0  0  0  0  0
   51.3238  155.3372   27.7908 H   0  0  0  0  0  0  0  0  0  0  0  0
   53.0522  154.9700   28.2192 H   0  0  0  0  0  0  0  0  0  0  0  0
   53.7124  157.2520   27.7230 H   0  0  0  0  0  0  0  0  0  0  0  0
   52.0312  157.6399   27.1661 H   0  0  0  0  0  0  0  0  0  0  0  0
   51.3252  156.8905   29.5711 H   0  0  0  0  0  0  0  0  0  0  0  0
   53.0481  157.1496   29.9863 H   0  0  0  0  0  0  0  0  0  0  0  0
   49.6286  157.6702   29.9677 H   0  0  0  0  0  0  0  0  0  0  0  0
   47.9648  158.6662   31.5399 H   0  0  0  0  0  0  0  0  0  0  0  0
   50.5668  162.0534   32.1815 H   0  0  0  0  0  0  0  0  0  0  0  0
  1  2  3  0
  2  3  1  0
  3  4  1  0
  4  5  1  0
  4  6  1  0
  6  7  1  0
  7  8  1  0
  8  9  1  0
  9 10  1  0
 10 11  2  0
 11 12  1  0
 12 13  2  0
 13 14  1  0
 13 15  1  0
 15 16  2  0
 16 17  1  0
 16 10  1  0
  1 18  1  0
  3 19  1  0
  3 20  1  0
  4 21  1  6
  5 22  1  0
  5 23  1  0
  5 24  1  0
  6 25  1  0
  6 26  1  0
  7 27  1  0
  7 28  1  0
  8 29  1  0
  8 30  1  0
 11 31  1  0
 12 32  1  0
 15 33  1  0
M  CHG  1   4   1
M  END
>  <meeko>  (4) 
{"is_sidechain": [false], "free_energy": -7.479, "intermolecular_energy": -10.26, "internal_energy": -0.283}

$$$$
clorgyline_out
     RDKit          3D

 33 33  0  0  0  0  0  0  0  0999 V2000
   49.3270  160.8260   33.4840 C   0  0  0  0  0  0  0  0  0  0  0  0
   49.2090  160.9790   32.2980 C   0  0  0  0  0  0  0  0  0  0  0  0
   49.0670  161.1690   30.8450 C   0  0  0  0  0  0  0  0  0  0  0  0
   49.3480  159.9700   30.0360 N   0  0  2  0  0  0  0  0  0  0  0  0
   48.3880  158.9010   30.3130 C   0  0  0  0  0  0  0  0  0  0  0  0
   50.7460  159.5260   30.1830 C   0  0  0  0  0  0  0  0  0  0  0  0
   50.9040  158.0140   29.9640 C   0  0  0  0  0  0  0  0  0  0  0  0
   52.1760  157.6870   29.1820 C   0  0  0  0  0  0  0  0  0  0  0  0
   52.2660  156.2730   29.0230 O   0  0  0  0  0  0  0  0  0  0  0  0
   52.6530  155.7840   27.8040 C   0  0  0  0  0  0  0  0  0  0  0  0
   53.0610  156.5770   26.7260 C   0  0  0  0  0  0  0  0  0  0  0  0
   53.4340  155.9830   25.5150 C   0  0  0  0  0  0  0  0  0  0  0  0
   53.3980  154.5970   25.3760 C   0  0  0  0  0  0  0  0  0  0  0  0
   53.8580  153.8780   23.8820 Cl  0  0  0  0  0  0  0  0  0  0  0  0
   52.9930  153.7930   26.4350 C   0  0  0  0  0  0  0  0  0  0  0  0
   52.6200  154.3870   27.6430 C   0  0  0  0  0  0  0  0  0  0  0  0
   52.1250  153.3470   28.9350 Cl  0  0  0  0  0  0  0  0  0  0  0  0
   49.4350  160.6859   34.5697 H   0  0  0  0  0  0  0  0  0  0  0  0
   48.0336  161.4857   30.6404 H   0  0  0  0  0  0  0  0  0  0  0  0
   49.8159  161.9210   30.5558 H   0  0  0  0  0  0  0  0  0  0  0  0
   49.2300  160.2240   29.0540 H   0  0  0  0  0  0  0  0  0  0  0  0
   48.2786  158.7792   31.4007 H   0  0  0  0  0  0  0  0  0  0  0  0
   47.4136  159.1602   29.8732 H   0  0  0  0  0  0  0  0  0  0  0  0
   48.7501  157.9600   29.8732 H   0  0  0  0  0  0  0  0  0  0  0  0
   51.3651  160.0569   29.4449 H   0  0  0  0  0  0  0  0  0  0  0  0
   51.0642  159.7519   31.2114 H   0  0  0  0  0  0  0  0  0  0  0  0
   50.9489  157.5146   30.9431 H   0  0  0  0  0  0  0  0  0  0  0  0
   50.0415  157.6596   29.3805 H   0  0  0  0  0  0  0  0  0  0  0  0
   52.1367  158.1685   28.1938 H   0  0  0  0  0  0  0  0  0  0  0  0
   53.0562  158.0589   29.7270 H   0  0  0  0  0  0  0  0  0  0  0  0
   53.0887  157.6716   26.8307 H   0  0  0  0  0  0  0  0  0  0  0  0
   53.7561  156.6113   24.6715 H   0  0  0  0  0  0  0  0  0  0  0  0
   52.9665  152.6991   26.3229 H   0  0  0  0  0  0  0  0  0  0  0  0
  1  2  3  0
  2  3  1  0
  3  4  1  0
  4  5  1  0
  4  6  1  0
  6  7  1  0
  7  8  1  0
  8  9  1  0
  9 10  1  0
 10 11  2  0
 11 12  1  0
 12 13  2  0
 13 14  1  0
 13 15  1  0
 15 16  2  0
 16 17  1  0
 16 10  1  0
  1 18  1  0
  3 19  1  0
  3 20  1  0
  4 21  1  6
  5 22  1  0
  5 23  1  0
  5 24  1  0
  6 25  1  0
  6 26  1  0
  7 27  1  0
  7 28  1  0
  8 29  1  0
  8 30  1  0
 11 31  1  0
 12 32  1  0
 15 33  1  0
M  CHG  1   4   1
M  END
>  <meeko>  (5) 
{"is_sidechain": [false], "free_energy": -7.361, "intermolecular_energy": -9.958, "internal_energy": -0.424}

$$$$
clorgyline_out
     RDKit          3D

 33 33  0  0  0  0  0  0  0  0999 V2000
   53.5300  162.3230   30.7680 C   0  0  0  0  0  0  0  0  0  0  0  0
   52.5840  161.6100   30.9670 C   0  0  0  0  0  0  0  0  0  0  0  0
   51.4220  160.7400   31.2130 C   0  0  0  0  0  0  0  0  0  0  0  0
   50.8920  160.0660   30.0130 N   0  0  2  0  0  0  0  0  0  0  0  0
   49.5040  160.4500   29.7540 C   0  0  0  0  0  0  0  0  0  0  0  0
   51.0700  158.6050   30.0840 C   0  0  0  0  0  0  0  0  0  0  0  0
   52.2270  158.1150   29.2010 C   0  0  0  0  0  0  0  0  0  0  0  0
   52.3960  156.5980   29.2810 C   0  0  0  0  0  0  0  0  0  0  0  0
   51.7410  156.0040   28.1620 O   0  0  0  0  0  0  0  0  0  0  0  0
   52.5140  155.5710   27.1180 C   0  0  0  0  0  0  0  0  0  0  0  0
   53.0930  156.4100   26.1600 C   0  0  0  0  0  0  0  0  0  0  0  0
   53.8650  155.8710   25.1240 C   0  0  0  0  0  0  0  0  0  0  0  0
   54.0570  154.4940   25.0390 C   0  0  0  0  0  0  0  0  0  0  0  0
   55.0060  153.8430   23.7610 Cl  0  0  0  0  0  0  0  0  0  0  0  0
   53.4870  153.6440   25.9810 C   0  0  0  0  0  0  0  0  0  0  0  0
   52.7170  154.1830   27.0140 C   0  0  0  0  0  0  0  0  0  0  0  0
   52.0290  153.0870   28.1640 Cl  0  0  0  0  0  0  0  0  0  0  0  0
   54.3963  162.9759   30.5858 H   0  0  0  0  0  0  0  0  0  0  0  0
   51.7198  159.9671   31.9368 H   0  0  0  0  0  0  0  0  0  0  0  0
   50.6179  161.3928   31.5834 H   0  0  0  0  0  0  0  0  0  0  0  0
   51.4400  160.3830   29.2130 H   0  0  0  0  0  0  0  0  0  0  0  0
   48.9793  160.5952   30.7098 H   0  0  0  0  0  0  0  0  0  0  0  0
   49.4841  161.3874   29.1787 H   0  0  0  0  0  0  0  0  0  0  0  0
   49.0052  159.6561   29.1787 H   0  0  0  0  0  0  0  0  0  0  0  0
   51.2777  158.3243   31.1271 H   0  0  0  0  0  0  0  0  0  0  0  0
   50.1452  158.1352   29.7180 H   0  0  0  0  0  0  0  0  0  0  0  0
   52.0229  158.3964   28.1574 H   0  0  0  0  0  0  0  0  0  0  0  0
   53.1551  158.5829   29.5611 H   0  0  0  0  0  0  0  0  0  0  0  0
   53.4660  156.3435   29.2613 H   0  0  0  0  0  0  0  0  0  0  0  0
   51.9555  156.2212   30.2158 H   0  0  0  0  0  0  0  0  0  0  0  0
   52.9411  157.4978   26.2210 H   0  0  0  0  0  0  0  0  0  0  0  0
   54.3208  156.5361   24.3757 H   0  0  0  0  0  0  0  0  0  0  0  0
   53.6413  152.5570   25.9129 H   0  0  0  0  0  0  0  0  0  0  0  0
  1  2  3  0
  2  3  1  0
  3  4  1  0
  4  5  1  0
  4  6  1  0
  6  7  1  0
  7  8  1  0
  8  9  1  0
  9 10  1  0
 10 11  2  0
 11 12  1  0
 12 13  2  0
 13 14  1  0
 13 15  1  0
 15 16  2  0
 16 17  1  0
 16 10  1  0
  1 18  1  0
  3 19  1  0
  3 20  1  0
  4 21  1  6
  5 22  1  0
  5 23  1  0
  5 24  1  0
  6 25  1  0
  6 26  1  0
  7 27  1  0
  7 28  1  0
  8 29  1  0
  8 30  1  0
 11 31  1  0
 12 32  1  0
 15 33  1  0
M  CHG  1   4   1
M  END
>  <meeko>  (6) 
{"is_sidechain": [false], "free_energy": -7.224, "intermolecular_energy": -9.827, "internal_energy": -0.37}

$$$$
clorgyline_out
     RDKit          3D

 33 33  0  0  0  0  0  0  0  0999 V2000
   49.3440  160.6980   33.2090 C   0  0  0  0  0  0  0  0  0  0  0  0
   50.1870  160.7590   32.3550 C   0  0  0  0  0  0  0  0  0  0  0  0
   51.2230  160.8300   31.3110 C   0  0  0  0  0  0  0  0  0  0  0  0
   50.8650  160.1730   30.0410 N   0  0  2  0  0  0  0  0  0  0  0  0
   49.5310  160.5730   29.5900 C   0  0  0  0  0  0  0  0  0  0  0  0
   51.0200  158.7100   30.1190 C   0  0  0  0  0  0  0  0  0  0  0  0
   52.2100  158.2040   29.2910 C   0  0  0  0  0  0  0  0  0  0  0  0
   52.0760  156.7180   28.9590 C   0  0  0  0  0  0  0  0  0  0  0  0
   52.4520  156.5170   27.5980 O   0  0  0  0  0  0  0  0  0  0  0  0
   52.6460  155.2320   27.1660 C   0  0  0  0  0  0  0  0  0  0  0  0
   52.1750  154.0930   27.8280 C   0  0  0  0  0  0  0  0  0  0  0  0
   52.4280  152.8190   27.3080 C   0  0  0  0  0  0  0  0  0  0  0  0
   53.1560  152.6770   26.1290 C   0  0  0  0  0  0  0  0  0  0  0  0
   53.4620  151.1060   25.4990 Cl  0  0  0  0  0  0  0  0  0  0  0  0
   53.6340  153.7970   25.4570 C   0  0  0  0  0  0  0  0  0  0  0  0
   53.3810  155.0690   25.9770 C   0  0  0  0  0  0  0  0  0  0  0  0
   53.9930  156.4340   25.1060 Cl  0  0  0  0  0  0  0  0  0  0  0  0
   48.5722  160.6421   33.9908 H   0  0  0  0  0  0  0  0  0  0  0  0
   51.4268  161.8906   31.1023 H   0  0  0  0  0  0  0  0  0  0  0  0
   52.0970  160.2900   31.7040 H   0  0  0  0  0  0  0  0  0  0  0  0
   51.5240  160.4930   29.3300 H   0  0  0  0  0  0  0  0  0  0  0  0
   48.8908  160.7650   30.4637 H   0  0  0  0  0  0  0  0  0  0  0  0
   49.6078  161.4876   28.9837 H   0  0  0  0  0  0  0  0  0  0  0  0
   49.0919  159.7670   28.9837 H   0  0  0  0  0  0  0  0  0  0  0  0
   51.1749  158.4265   31.1705 H   0  0  0  0  0  0  0  0  0  0  0  0
   50.1071  158.2531   29.7094 H   0  0  0  0  0  0  0  0  0  0  0  0
   52.2604  158.7759   28.3527 H   0  0  0  0  0  0  0  0  0  0  0  0
   53.1250  158.3415   29.8858 H   0  0  0  0  0  0  0  0  0  0  0  0
   52.7353  156.1313   29.6155 H   0  0  0  0  0  0  0  0  0  0  0  0
   51.0366  156.3923   29.1123 H   0  0  0  0  0  0  0  0  0  0  0  0
   51.6031  154.1996   28.7616 H   0  0  0  0  0  0  0  0  0  0  0  0
   52.0513  151.9278   27.8313 H   0  0  0  0  0  0  0  0  0  0  0  0
   54.2061  153.6824   24.5245 H   0  0  0  0  0  0  0  0  0  0  0  0
  1  2  3  0
  2  3  1  0
  3  4  1  0
  4  5  1  0
  4  6  1  0
  6  7  1  0
  7  8  1  0
  8  9  1  0
  9 10  1  0
 10 11  2  0
 11 12  1  0
 12 13  2  0
 13 14  1  0
 13 15  1  0
 15 16  2  0
 16 17  1  0
 16 10  1  0
  1 18  1  0
  3 19  1  0
  3 20  1  0
  4 21  1  6
  5 22  1  0
  5 23  1  0
  5 24  1  0
  6 25  1  0
  6 26  1  0
  7 27  1  0
  7 28  1  0
  8 29  1  0
  8 30  1  0
 11 31  1  0
 12 32  1  0
 15 33  1  0
M  CHG  1   4   1
M  END
>  <meeko>  (7) 
{"is_sidechain": [false], "free_energy": -7.216, "intermolecular_energy": -9.886, "internal_energy": -0.301}

$$$$
clorgyline_out
     RDKit          3D

 33 33  0  0  0  0  0  0  0  0999 V2000
   47.4700  159.8770   31.8630 C   0  0  0  0  0  0  0  0  0  0  0  0
   48.1450  159.1600   31.1760 C   0  0  0  0  0  0  0  0  0  0  0  0
   48.9710  158.2830   30.3290 C   0  0  0  0  0  0  0  0  0  0  0  0
   50.4190  158.5520   30.3900 N   0  0  2  0  0  0  0  0  0  0  0  0
   50.7230  159.9290   29.9990 C   0  0  0  0  0  0  0  0  0  0  0  0
   51.1920  157.5620   29.6200 C   0  0  0  0  0  0  0  0  0  0  0  0
   50.6210  156.1420   29.7550 C   0  0  0  0  0  0  0  0  0  0  0  0
   51.5630  155.0960   29.1610 C   0  0  0  0  0  0  0  0  0  0  0  0
   51.6390  155.2940   27.7510 O   0  0  0  0  0  0  0  0  0  0  0  0
   52.1690  154.2900   26.9860 C   0  0  0  0  0  0  0  0  0  0  0  0
   51.9930  152.9250   27.2370 C   0  0  0  0  0  0  0  0  0  0  0  0
   52.5800  151.9710   26.3980 C   0  0  0  0  0  0  0  0  0  0  0  0
   53.3470  152.3770   25.3080 C   0  0  0  0  0  0  0  0  0  0  0  0
   54.0650  151.1970   24.2840 Cl  0  0  0  0  0  0  0  0  0  0  0  0
   53.5350  153.7290   25.0440 C   0  0  0  0  0  0  0  0  0  0  0  0
   52.9490  154.6800   25.8820 C   0  0  0  0  0  0  0  0  0  0  0  0
   53.2090  156.3510   25.5130 Cl  0  0  0  0  0  0  0  0  0  0  0  0
   46.8516  160.5339   32.4924 H   0  0  0  0  0  0  0  0  0  0  0  0
   48.8022  157.2432   30.6457 H   0  0  0  0  0  0  0  0  0  0  0  0
   48.6632  158.4751   29.2905 H   0  0  0  0  0  0  0  0  0  0  0  0
   50.7120  158.4510   31.3630 H   0  0  0  0  0  0  0  0  0  0  0  0
   50.8589  160.5446   30.9004 H   0  0  0  0  0  0  0  0  0  0  0  0
   51.6463  159.9451   29.4013 H   0  0  0  0  0  0  0  0  0  0  0  0
   49.8923  160.3324   29.4013 H   0  0  0  0  0  0  0  0  0  0  0  0
   51.1769  157.8497   28.5584 H   0  0  0  0  0  0  0  0  0  0  0  0
   52.2169  157.5515   30.0193 H   0  0  0  0  0  0  0  0  0  0  0  0
   50.4676  155.9192   30.8212 H   0  0  0  0  0  0  0  0  0  0  0  0
   49.6703  156.1005   29.2032 H   0  0  0  0  0  0  0  0  0  0  0  0
   52.5638  155.2056   29.6042 H   0  0  0  0  0  0  0  0  0  0  0  0
   51.1839  154.0862   29.3767 H   0  0  0  0  0  0  0  0  0  0  0  0
   51.3903  152.6000   28.0979 H   0  0  0  0  0  0  0  0  0  0  0  0
   52.4356  150.8993   26.5994 H   0  0  0  0  0  0  0  0  0  0  0  0
   54.1403  154.0469   24.1823 H   0  0  0  0  0  0  0  0  0  0  0  0
  1  2  3  0
  2  3  1  0
  3  4  1  0
  4  5  1  0
  4  6  1  0
  6  7  1  0
  7  8  1  0
  8  9  1  0
  9 10  1  0
 10 11  2  0
 11 12  1  0
 12 13  2  0
 13 14  1  0
 13 15  1  0
 15 16  2  0
 16 17  1  0
 16 10  1  0
  1 18  1  0
  3 19  1  0
  3 20  1  0
  4 21  1  1
  5 22  1  0
  5 23  1  0
  5 24  1  0
  6 25  1  0
  6 26  1  0
  7 27  1  0
  7 28  1  0
  8 29  1  0
  8 30  1  0
 11 31  1  0
 12 32  1  0
 15 33  1  0
M  CHG  1   4   1
M  END
>  <meeko>  (8) 
{"is_sidechain": [false], "free_energy": -7.207, "intermolecular_energy": -9.812, "internal_energy": -0.363}

$$$$
clorgyline_out
     RDKit          3D

 33 33  0  0  0  0  0  0  0  0999 V2000
   48.9180  159.0720   31.1370 C   0  0  0  0  0  0  0  0  0  0  0  0
   49.2840  158.1050   30.5270 C   0  0  0  0  0  0  0  0  0  0  0  0
   49.7310  156.9200   29.7740 C   0  0  0  0  0  0  0  0  0  0  0  0
   51.1880  156.6920   29.7940 N   0  0  2  0  0  0  0  0  0  0  0  0
   51.9210  157.8850   29.3710 C   0  0  0  0  0  0  0  0  0  0  0  0
   51.5630  155.4940   29.0210 C   0  0  0  0  0  0  0  0  0  0  0  0
   52.6330  155.7950   27.9620 C   0  0  0  0  0  0  0  0  0  0  0  0
   52.2020  155.3240   26.5730 C   0  0  0  0  0  0  0  0  0  0  0  0
   53.3430  154.8130   25.8870 O   0  0  0  0  0  0  0  0  0  0  0  0
   53.4160  153.4630   25.6720 C   0  0  0  0  0  0  0  0  0  0  0  0
   52.7270  152.5030   26.4210 C   0  0  0  0  0  0  0  0  0  0  0  0
   52.8690  151.1420   26.1280 C   0  0  0  0  0  0  0  0  0  0  0  0
   53.7030  150.7360   25.0880 C   0  0  0  0  0  0  0  0  0  0  0  0
   53.8720  149.0610   24.7360 Cl  0  0  0  0  0  0  0  0  0  0  0  0
   54.3970  151.6750   24.3340 C   0  0  0  0  0  0  0  0  0  0  0  0
   54.2550  153.0330   24.6280 C   0  0  0  0  0  0  0  0  0  0  0  0
   55.1370  154.1660   23.6620 Cl  0  0  0  0  0  0  0  0  0  0  0  0
   48.5826  159.9581   31.6959 H   0  0  0  0  0  0  0  0  0  0  0  0
   49.2395  156.0349   30.2042 H   0  0  0  0  0  0  0  0  0  0  0  0
   49.4582  157.0978   28.7233 H   0  0  0  0  0  0  0  0  0  0  0  0
   51.4590  156.5060   30.7600 H   0  0  0  0  0  0  0  0  0  0  0  0
   52.2618  158.4396   30.2577 H   0  0  0  0  0  0  0  0  0  0  0  0
   52.7915  157.5861   28.7686 H   0  0  0  0  0  0  0  0  0  0  0  0
   51.2610  158.5265   28.7686 H   0  0  0  0  0  0  0  0  0  0  0  0
   51.9546  154.7344   29.7136 H   0  0  0  0  0  0  0  0  0  0  0  0
   50.6638  155.1358   28.4984 H   0  0  0  0  0  0  0  0  0  0  0  0
   52.8091  156.8804   27.9316 H   0  0  0  0  0  0  0  0  0  0  0  0
   53.5503  155.2544   28.2381 H   0  0  0  0  0  0  0  0  0  0  0  0
   51.4436  154.5331   26.6695 H   0  0  0  0  0  0  0  0  0  0  0  0
   51.7726  156.1654   26.0094 H   0  0  0  0  0  0  0  0  0  0  0  0
   52.0702  152.8197   27.2446 H   0  0  0  0  0  0  0  0  0  0  0  0
   52.3221  150.3924   26.7188 H   0  0  0  0  0  0  0  0  0  0  0  0
   55.0528  151.3512   23.5123 H   0  0  0  0  0  0  0  0  0  0  0  0
  1  2  3  0
  2  3  1  0
  3  4  1  0
  4  5  1  0
  4  6  1  0
  6  7  1  0
  7  8  1  0
  8  9  1  0
  9 10  1  0
 10 11  2  0
 11 12  1  0
 12 13  2  0
 13 14  1  0
 13 15  1  0
 15 16  2  0
 16 17  1  0
 16 10  1  0
  1 18  1  0
  3 19  1  0
  3 20  1  0
  4 21  1  1
  5 22  1  0
  5 23  1  0
  5 24  1  0
  6 25  1  0
  6 26  1  0
  7 27  1  0
  7 28  1  0
  8 29  1  0
  8 30  1  0
 11 31  1  0
 12 32  1  0
 15 33  1  0
M  CHG  1   4   1
M  END
>  <meeko>  (9) 
{"is_sidechain": [false], "free_energy": -6.989, "intermolecular_energy": -9.515, "internal_energy": -0.365}

$$$$
