harmine_out
     RDKit          3D

 28 30  0  0  0  0  0  0  0  0999 V2000
   54.0720  149.4070   24.8020 C   0  0  0  0  0  0  0  0  0  0  0  0
   54.0950  150.5090   23.9050 O   0  0  0  0  0  0  0  0  0  0  0  0
   53.9310  151.7560   24.4480 C   0  0  0  0  0  0  0  0  0  0  0  0
   54.3400  152.9570   23.8710 C   0  0  0  0  0  0  0  0  0  0  0  0
   54.1180  154.1800   24.5220 C   0  0  0  0  0  0  0  0  0  0  0  0
   53.4750  154.1980   25.7760 C   0  0  0  0  0  0  0  0  0  0  0  0
   53.0750  152.9850   26.3310 C   0  0  0  0  0  0  0  0  0  0  0  0
   53.2880  151.7570   25.6940 C   0  0  0  0  0  0  0  0  0  0  0  0
   52.4800  153.2690   27.5360 N   0  0  0  0  0  0  0  0  0  0  0  0
   52.4790  154.6230   27.7820 C   0  0  0  0  0  0  0  0  0  0  0  0
   51.9850  155.3480   28.8720 C   0  0  0  0  0  0  0  0  0  0  0  0
   51.3160  154.7330   30.0600 C   0  0  0  0  0  0  0  0  0  0  0  0
   52.1240  156.7010   28.8480 N   0  0  0  0  0  0  0  0  0  0  0  0
   52.7230  157.2960   27.7930 C   0  0  0  0  0  0  0  0  0  0  0  0
   53.2290  156.6270   26.6910 C   0  0  0  0  0  0  0  0  0  0  0  0
   53.0980  155.2320   26.6900 C   0  0  0  0  0  0  0  0  0  0  0  0
   54.0797  149.7771   25.8378 H   0  0  0  0  0  0  0  0  0  0  0  0
   53.1613  148.8142   24.6312 H   0  0  0  0  0  0  0  0  0  0  0  0
   54.9572  148.7767   24.6312 H   0  0  0  0  0  0  0  0  0  0  0  0
   54.8432  152.9459   22.8929 H   0  0  0  0  0  0  0  0  0  0  0  0
   54.4446  155.1211   24.0554 H   0  0  0  0  0  0  0  0  0  0  0  0
   52.9591  150.8161   26.1593 H   0  0  0  0  0  0  0  0  0  0  0  0
   52.1040  152.5920   28.1440 H   0  0  0  0  0  0  0  0  0  0  0  0
   51.7584  155.1397   30.9813 H   0  0  0  0  0  0  0  0  0  0  0  0
   50.2409  154.9647   30.0362 H   0  0  0  0  0  0  0  0  0  0  0  0
   51.4566  153.6423   30.0362 H   0  0  0  0  0  0  0  0  0  0  0  0
   52.8155  158.3920   27.8107 H   0  0  0  0  0  0  0  0  0  0  0  0
   53.7091  157.1633   25.8592 H   0  0  0  0  0  0  0  0  0  0  0  0
  1  2  1  0
  2  3  1  0
  3  4  2  0
  4  5  1  0
  5  6  2  0
  6  7  1  0
  7  8  2  0
  7  9  1  0
  9 10  1  0
 10 11  2  0
 11 12  1  0
 11 13  1  0
 13 14  2  0
 14 15  1  0
 15 16  2  0
  8  3  1  0
 16 10  1  0
 16  6  1  0
  1 17  1  0
  1 18  1  0
  1 19  1  0
  4 20  1  0
  5 21  1  0
  8 22  1  0
  9 23  1  0
 12 24  1  0
 12 25  1  0
 12 26  1  0
 14 27  1  0
 15 28  1  0
M  END
>  <meeko>  (1) 
{"is_sidechain": [false], "free_energy": -8.607, "intermolecular_energy": -9.11, "internal_energy": -0.06}

$$$$
harmine_out
     RDKit          3D

 28 30  0  0  0  0  0  0  0  0999 V2000
   52.2930  154.3180   26.3940 C   0  0  0  0  0  0  0  0  0  0  0  0
   52.6630  154.5210   27.7510 O   0  0  0  0  0  0  0  0  0  0  0  0
   51.9610  155.4660   28.4520 C   0  0  0  0  0  0  0  0  0  0  0  0
   50.6710  155.3140   28.9590 C   0  0  0  0  0  0  0  0  0  0  0  0
   50.0480  156.3540   29.6640 C   0  0  0  0  0  0  0  0  0  0  0  0
   50.7310  157.5710   29.8640 C   0  0  0  0  0  0  0  0  0  0  0  0
   52.0180  157.6980   29.3480 C   0  0  0  0  0  0  0  0  0  0  0  0
   52.6550  156.6690   28.6430 C   0  0  0  0  0  0  0  0  0  0  0  0
   52.4620  158.9570   29.6730 N   0  0  0  0  0  0  0  0  0  0  0  0
   51.5070  159.6500   30.3810 C   0  0  0  0  0  0  0  0  0  0  0  0
   51.5290  160.9470   30.9070 C   0  0  0  0  0  0  0  0  0  0  0  0
   52.6870  161.8870   30.7840 C   0  0  0  0  0  0  0  0  0  0  0  0
   50.4250  161.3800   31.5730 N   0  0  0  0  0  0  0  0  0  0  0  0
   49.3580  160.5620   31.7060 C   0  0  0  0  0  0  0  0  0  0  0  0
   49.2830  159.2730   31.2060 C   0  0  0  0  0  0  0  0  0  0  0  0
   50.4080  158.8020   30.5160 C   0  0  0  0  0  0  0  0  0  0  0  0
   51.3293  153.7893   26.3519 H   0  0  0  0  0  0  0  0  0  0  0  0
   52.1996  155.2912   25.8899 H   0  0  0  0  0  0  0  0  0  0  0  0
   53.0637  153.7164   25.8899 H   0  0  0  0  0  0  0  0  0  0  0  0
   50.1350  154.3660   28.8040 H   0  0  0  0  0  0  0  0  0  0  0  0
   49.0302  156.2207   30.0594 H   0  0  0  0  0  0  0  0  0  0  0  0
   53.6736  156.8014   28.2493 H   0  0  0  0  0  0  0  0  0  0  0  0
   53.3460  159.3160   29.4310 H   0  0  0  0  0  0  0  0  0  0  0  0
   53.0369  162.1710   31.7874 H   0  0  0  0  0  0  0  0  0  0  0  0
   53.5037  161.3931   30.2371 H   0  0  0  0  0  0  0  0  0  0  0  0
   52.3716  162.7878   30.2371 H   0  0  0  0  0  0  0  0  0  0  0  0
   48.4846  160.9485   32.2517 H   0  0  0  0  0  0  0  0  0  0  0  0
   48.3864  158.6507   31.3434 H   0  0  0  0  0  0  0  0  0  0  0  0
  1  2  1  0
  2  3  1  0
  3  4  2  0
  4  5  1  0
  5  6  2  0
  6  7  1  0
  7  8  2  0
  7  9  1  0
  9 10  1  0
 10 11  2  0
 11 12  1  0
 11 13  1  0
 13 14  2  0
 14 15  1  0
 15 16  2  0
  8  3  1  0
 16 10  1  0
 16  6  1  0
  1 17  1  0
  1 18  1  0
  1 19  1  0
  4 20  1  0
  5 21  1  0
  8 22  1  0
  9 23  1  0
 12 24  1  0
 12 25  1  0
 12 26  1  0
 14 27  1  0
 15 28  1  0
M  END
>  <meeko>  (2) 
{"is_sidechain": [false], "free_energy": -8.191, "intermolecular_energy": -8.694, "internal_energy": -0.035}

$$$$
harmine_out
     RDKit          3D

 28 30  0  0  0  0  0  0  0  0999 V2000
   50.4930  159.0790   30.3240 C   0  0  0  0  0  0  0  0  0  0  0  0
   51.7420  158.7030   29.7600 O   0  0  0  0  0  0  0  0  0  0  0  0
   51.8240  157.4490   29.2140 C   0  0  0  0  0  0  0  0  0  0  0  0
   51.1740  156.3100   29.6860 C   0  0  0  0  0  0  0  0  0  0  0  0
   51.3320  155.0730   29.0440 C   0  0  0  0  0  0  0  0  0  0  0  0
   52.1590  154.9770   27.9060 C   0  0  0  0  0  0  0  0  0  0  0  0
   52.7960  156.1290   27.4530 C   0  0  0  0  0  0  0  0  0  0  0  0
   52.6480  157.3710   28.0830 C   0  0  0  0  0  0  0  0  0  0  0  0
   53.5310  155.7760   26.3470 N   0  0  0  0  0  0  0  0  0  0  0  0
   53.3910  154.4360   26.0670 C   0  0  0  0  0  0  0  0  0  0  0  0
   53.9510  153.6580   25.0470 C   0  0  0  0  0  0  0  0  0  0  0  0
   54.8750  154.1850   23.9950 C   0  0  0  0  0  0  0  0  0  0  0  0
   53.6340  152.3360   25.0120 N   0  0  0  0  0  0  0  0  0  0  0  0
   52.8030  151.8200   25.9440 C   0  0  0  0  0  0  0  0  0  0  0  0
   52.2230  152.5430   26.9720 C   0  0  0  0  0  0  0  0  0  0  0  0
   52.5330  153.9080   27.0320 C   0  0  0  0  0  0  0  0  0  0  0  0
   50.5649  159.0574   31.4214 H   0  0  0  0  0  0  0  0  0  0  0  0
   50.2326  160.0954   29.9936 H   0  0  0  0  0  0  0  0  0  0  0  0
   49.7148  158.3753   29.9936 H   0  0  0  0  0  0  0  0  0  0  0  0
   50.5285  156.3822   30.5738 H   0  0  0  0  0  0  0  0  0  0  0  0
   50.8131  154.1817   29.4266 H   0  0  0  0  0  0  0  0  0  0  0  0
   53.1655  158.2628   27.6998 H   0  0  0  0  0  0  0  0  0  0  0  0
   54.0840  156.4000   25.8240 H   0  0  0  0  0  0  0  0  0  0  0  0
   55.7349  154.6755   24.4746 H   0  0  0  0  0  0  0  0  0  0  0  0
   55.2297  153.3533   23.3685 H   0  0  0  0  0  0  0  0  0  0  0  0
   54.3398  154.9137   23.3685 H   0  0  0  0  0  0  0  0  0  0  0  0
   52.5703  150.7467   25.8812 H   0  0  0  0  0  0  0  0  0  0  0  0
   51.5527  152.0699   27.7047 H   0  0  0  0  0  0  0  0  0  0  0  0
  1  2  1  0
  2  3  1  0
  3  4  2  0
  4  5  1  0
  5  6  2  0
  6  7  1  0
  7  8  2  0
  7  9  1  0
  9 10  1  0
 10 11  2  0
 11 12  1  0
 11 13  1  0
 13 14  2  0
 14 15  1  0
 15 16  2  0
  8  3  1  0
 16 10  1  0
 16  6  1  0
  1 17  1  0
  1 18  1  0
  1 19  1  0
  4 20  1  0
  5 21  1  0
  8 22  1  0
  9 23  1  0
 12 24  1  0
 12 25  1  0
 12 26  1  0
 14 27  1  0
 15 28  1  0
M  END
>  <meeko>  (3) 
{"is_sidechain": [false], "free_energy": -8.141, "intermolecular_energy": -8.637, "internal_energy": -0.039}

$$$$
harmine_out
     RDKit          3D

 28 30  0  0  0  0  0  0  0  0999 V2000
   50.8150  158.0340   30.0160 C   0  0  0  0  0  0  0  0  0  0  0  0
   51.2580  156.6840   29.9900 O   0  0  0  0  0  0  0  0  0  0  0  0
   51.8750  156.2540   28.8450 C   0  0  0  0  0  0  0  0  0  0  0  0
   52.4960  157.0690   27.8990 C   0  0  0  0  0  0  0  0  0  0  0  0
   53.0990  156.5160   26.7590 C   0  0  0  0  0  0  0  0  0  0  0  0
   53.0790  155.1200   26.5650 C   0  0  0  0  0  0  0  0  0  0  0  0
   52.4550  154.3290   27.5250 C   0  0  0  0  0  0  0  0  0  0  0  0
   51.8490  154.8640   28.6680 C   0  0  0  0  0  0  0  0  0  0  0  0
   52.5710  153.0240   27.1110 N   0  0  0  0  0  0  0  0  0  0  0  0
   53.2500  152.9420   25.9170 C   0  0  0  0  0  0  0  0  0  0  0  0
   53.5920  151.8290   25.1400 C   0  0  0  0  0  0  0  0  0  0  0  0
   53.2550  150.4160   25.4980 C   0  0  0  0  0  0  0  0  0  0  0  0
   54.2760  152.0480   23.9850 N   0  0  0  0  0  0  0  0  0  0  0  0
   54.6000  153.3090   23.6260 C   0  0  0  0  0  0  0  0  0  0  0  0
   54.2870  154.4440   24.3550 C   0  0  0  0  0  0  0  0  0  0  0  0
   53.5820  154.2460   25.5500 C   0  0  0  0  0  0  0  0  0  0  0  0
   50.7066  158.3643   31.0596 H   0  0  0  0  0  0  0  0  0  0  0  0
   51.5511  158.6714   29.5043 H   0  0  0  0  0  0  0  0  0  0  0  0
   49.8444  158.1113   29.5043 H   0  0  0  0  0  0  0  0  0  0  0  0
   52.5133  158.1587   28.0483 H   0  0  0  0  0  0  0  0  0  0  0  0
   53.5854  157.1693   26.0197 H   0  0  0  0  0  0  0  0  0  0  0  0
   51.3648  154.2101   29.4082 H   0  0  0  0  0  0  0  0  0  0  0  0
   52.2150  152.2490   27.6040 H   0  0  0  0  0  0  0  0  0  0  0  0
   53.2300  150.3111   26.5927 H   0  0  0  0  0  0  0  0  0  0  0  0
   52.2700  150.1574   25.0823 H   0  0  0  0  0  0  0  0  0  0  0  0
   54.0173  149.7406   25.0823 H   0  0  0  0  0  0  0  0  0  0  0  0
   55.1534  153.4445   22.6850 H   0  0  0  0  0  0  0  0  0  0  0  0
   54.5767  155.4488   24.0139 H   0  0  0  0  0  0  0  0  0  0  0  0
  1  2  1  0
  2  3  1  0
  3  4  2  0
  4  5  1  0
  5  6  2  0
  6  7  1  0
  7  8  2  0
  7  9  1  0
  9 10  1  0
 10 11  2  0
 11 12  1  0
 11 13  1  0
 13 14  2  0
 14 15  1  0
 15 16  2  0
  8  3  1  0
 16 10  1  0
 16  6  1  0
  1 17  1  0
  1 18  1  0
  1 19  1  0
  4 20  1  0
  5 21  1  0
  8 22  1  0
  9 23  1  0
 12 24  1  0
 12 25  1  0
 12 26  1  0
 14 27  1  0
 15 28  1  0
M  END
>  <meeko>  (4) 
{"is_sidechain": [false], "free_energy": -8.02, "intermolecular_energy": -8.508, "internal_energy": -0.041}

$$$$
harmine_out
     RDKit          3D

 28 30  0  0  0  0  0  0  0  0999 V2000
   52.7370  153.5920   27.7860 C   0  0  0  0  0  0  0  0  0  0  0  0
   51.5080  154.1780   28.1930 O   0  0  0  0  0  0  0  0  0  0  0  0
   51.5580  155.4650   28.6600 C   0  0  0  0  0  0  0  0  0  0  0  0
   52.6420  156.3330   28.5410 C   0  0  0  0  0  0  0  0  0  0  0  0
   52.5810  157.6360   29.0600 C   0  0  0  0  0  0  0  0  0  0  0  0
   51.4100  158.0750   29.7100 C   0  0  0  0  0  0  0  0  0  0  0  0
   50.3410  157.1890   29.8140 C   0  0  0  0  0  0  0  0  0  0  0  0
   50.3860  155.8870   29.3020 C   0  0  0  0  0  0  0  0  0  0  0  0
   49.3340  157.8470   30.4780 N   0  0  0  0  0  0  0  0  0  0  0  0
   49.7130  159.1280   30.8070 C   0  0  0  0  0  0  0  0  0  0  0  0
   49.0140  160.1390   31.4780 C   0  0  0  0  0  0  0  0  0  0  0  0
   47.6190  159.9960   31.9990 C   0  0  0  0  0  0  0  0  0  0  0  0
   49.6470  161.3280   31.6680 N   0  0  0  0  0  0  0  0  0  0  0  0
   50.9070  161.4970   31.2130 C   0  0  0  0  0  0  0  0  0  0  0  0
   51.6430  160.5340   30.5450 C   0  0  0  0  0  0  0  0  0  0  0  0
   51.0140  159.2990   30.3360 C   0  0  0  0  0  0  0  0  0  0  0  0
   53.3222  153.3130   28.6746 H   0  0  0  0  0  0  0  0  0  0  0  0
   52.5335  152.6940   27.1842 H   0  0  0  0  0  0  0  0  0  0  0  0
   53.3066  154.3154   27.1842 H   0  0  0  0  0  0  0  0  0  0  0  0
   53.5570  155.9927   28.0340 H   0  0  0  0  0  0  0  0  0  0  0  0
   53.4434  158.3114   28.9598 H   0  0  0  0  0  0  0  0  0  0  0  0
   49.5231  155.2120   29.4011 H   0  0  0  0  0  0  0  0  0  0  0  0
   48.4570  157.4540   30.6910 H   0  0  0  0  0  0  0  0  0  0  0  0
   47.6364  159.9978   33.0989 H   0  0  0  0  0  0  0  0  0  0  0  0
   47.0058  160.8360   31.6406 H   0  0  0  0  0  0  0  0  0  0  0  0
   47.1890  159.0491   31.6406 H   0  0  0  0  0  0  0  0  0  0  0  0
   51.3841  162.4729   31.3862 H   0  0  0  0  0  0  0  0  0  0  0  0
   52.6681  160.7277   30.1963 H   0  0  0  0  0  0  0  0  0  0  0  0
  1  2  1  0
  2  3  1  0
  3  4  2  0
  4  5  1  0
  5  6  2  0
  6  7  1  0
  7  8  2  0
  7  9  1  0
  9 10  1  0
 10 11  2  0
 11 12  1  0
 11 13  1  0
 13 14  2  0
 14 15  1  0
 15 16  2  0
  8  3  1  0
 16 10  1  0
 16  6  1  0
  1 17  1  0
  1 18  1  0
  1 19  1  0
  4 20  1  0
  5 21  1  0
  8 22  1  0
  9 23  1  0
 12 24  1  0
 12 25  1  0
 12 26  1  0
 14 27  1  0
 15 28  1  0
M  END
>  <meeko>  (5) 
{"is_sidechain": [false], "free_energy": -7.803, "intermolecular_energy": -8.277, "internal_energy": -0.042}

$$$$
harmine_out
     RDKit          3D

 28 30  0  0  0  0  0  0  0  0999 V2000
   54.4060  148.6380   24.4930 C   0  0  0  0  0  0  0  0  0  0  0  0
   53.1810  148.8890   25.1700 O   0  0  0  0  0  0  0  0  0  0  0  0
   52.9810  150.1610   25.6390 C   0  0  0  0  0  0  0  0  0  0  0  0
   52.1460  150.5170   26.6970 C   0  0  0  0  0  0  0  0  0  0  0  0
   52.0180  151.8570   27.0930 C   0  0  0  0  0  0  0  0  0  0  0  0
   52.7400  152.8590   26.4130 C   0  0  0  0  0  0  0  0  0  0  0  0
   53.5670  152.4770   25.3600 C   0  0  0  0  0  0  0  0  0  0  0  0
   53.7070  151.1450   24.9530 C   0  0  0  0  0  0  0  0  0  0  0  0
   54.1520  153.6200   24.8710 N   0  0  0  0  0  0  0  0  0  0  0  0
   53.7340  154.7290   25.5700 C   0  0  0  0  0  0  0  0  0  0  0  0
   54.0670  156.0790   25.4170 C   0  0  0  0  0  0  0  0  0  0  0  0
   55.0150  156.6020   24.3830 C   0  0  0  0  0  0  0  0  0  0  0  0
   53.4910  156.9740   26.2640 N   0  0  0  0  0  0  0  0  0  0  0  0
   52.6300  156.5440   27.2110 C   0  0  0  0  0  0  0  0  0  0  0  0
   52.2650  155.2220   27.4060 C   0  0  0  0  0  0  0  0  0  0  0  0
   52.8450  154.2790   26.5460 C   0  0  0  0  0  0  0  0  0  0  0  0
   55.2056  148.4742   25.2304 H   0  0  0  0  0  0  0  0  0  0  0  0
   54.2997  147.7430   23.8624 H   0  0  0  0  0  0  0  0  0  0  0  0
   54.6603  149.5027   23.8624 H   0  0  0  0  0  0  0  0  0  0  0  0
   51.5802  149.7374   27.2282 H   0  0  0  0  0  0  0  0  0  0  0  0
   51.3570  152.1246   27.9306 H   0  0  0  0  0  0  0  0  0  0  0  0
   54.3694  150.8772   24.1166 H   0  0  0  0  0  0  0  0  0  0  0  0
   54.7870  153.6430   24.1180 H   0  0  0  0  0  0  0  0  0  0  0  0
   55.8743  157.0761   24.8798 H   0  0  0  0  0  0  0  0  0  0  0  0
   55.3675  155.7707   23.7548 H   0  0  0  0  0  0  0  0  0  0  0  0
   54.4997  157.3435   23.7548 H   0  0  0  0  0  0  0  0  0  0  0  0
   52.1858  157.2988   27.8765 H   0  0  0  0  0  0  0  0  0  0  0  0
   51.5569  154.9275   28.1946 H   0  0  0  0  0  0  0  0  0  0  0  0
  1  2  1  0
  2  3  1  0
  3  4  2  0
  4  5  1  0
  5  6  2  0
  6  7  1  0
  7  8  2  0
  7  9  1  0
  9 10  1  0
 10 11  2  0
 11 12  1  0
 11 13  1  0
 13 14  2  0
 14 15  1  0
 15 16  2  0
  8  3  1  0
 16 10  1  0
 16  6  1  0
  1 17  1  0
  1 18  1  0
  1 19  1  0
  4 20  1  0
  5 21  1  0
  8 22  1  0
  9 23  1  0
 12 24  1  0
 12 25  1  0
 12 26  1  0
 14 27  1  0
 15 28  1  0
M  END
>  <meeko>  (6) 
{"is_sidechain": [false], "free_energy": -6.575, "intermolecular_energy": -6.96, "internal_energy": -0.06}

$$$$
harmine_out
     RDKit          3D

 28 30  0  0  0  0  0  0  0  0999 V2000
   54.2080  149.4780   24.5800 C   0  0  0  0  0  0  0  0  0  0  0  0
   54.1690  150.8960   24.4830 O   0  0  0  0  0  0  0  0  0  0  0  0
   53.4940  151.5670   25.4690 C   0  0  0  0  0  0  0  0  0  0  0  0
   52.5190  151.0240   26.3040 C   0  0  0  0  0  0  0  0  0  0  0  0
   51.8920  151.8090   27.2830 C   0  0  0  0  0  0  0  0  0  0  0  0
   52.2500  153.1650   27.4270 C   0  0  0  0  0  0  0  0  0  0  0  0
   53.2280  153.6830   26.5810 C   0  0  0  0  0  0  0  0  0  0  0  0
   53.8630  152.9130   25.6000 C   0  0  0  0  0  0  0  0  0  0  0  0
   53.3950  155.0050   26.9190 N   0  0  0  0  0  0  0  0  0  0  0  0
   52.5600  155.3610   27.9530 C   0  0  0  0  0  0  0  0  0  0  0  0
   52.3960  156.5870   28.6070 C   0  0  0  0  0  0  0  0  0  0  0  0
   53.1600  157.8300   28.2730 C   0  0  0  0  0  0  0  0  0  0  0  0
   51.4820  156.6520   29.6130 N   0  0  0  0  0  0  0  0  0  0  0  0
   50.7720  155.5520   29.9460 C   0  0  0  0  0  0  0  0  0  0  0  0
   50.8930  154.3170   29.3320 C   0  0  0  0  0  0  0  0  0  0  0  0
   51.8290  154.2230   28.2930 C   0  0  0  0  0  0  0  0  0  0  0  0
   54.2161  149.1831   25.6397 H   0  0  0  0  0  0  0  0  0  0  0  0
   53.3212  149.0523   24.0877 H   0  0  0  0  0  0  0  0  0  0  0  0
   55.1168  149.1017   24.0877 H   0  0  0  0  0  0  0  0  0  0  0  0
   52.2376  149.9663   26.1939 H   0  0  0  0  0  0  0  0  0  0  0  0
   51.1241  151.3683   27.9357 H   0  0  0  0  0  0  0  0  0  0  0  0
   54.6322  153.3528   24.9482 H   0  0  0  0  0  0  0  0  0  0  0  0
   54.0280  155.6160   26.4780 H   0  0  0  0  0  0  0  0  0  0  0  0
   53.4683  158.3317   29.2021 H   0  0  0  0  0  0  0  0  0  0  0  0
   54.0517  157.5656   27.6857 H   0  0  0  0  0  0  0  0  0  0  0  0
   52.5214  158.5062   27.6857 H   0  0  0  0  0  0  0  0  0  0  0  0
   50.0440  155.6444   30.7655 H   0  0  0  0  0  0  0  0  0  0  0  0
   50.2859  153.4542   29.6435 H   0  0  0  0  0  0  0  0  0  0  0  0
  1  2  1  0
  2  3  1  0
  3  4  2  0
  4  5  1  0
  5  6  2  0
  6  7  1  0
  7  8  2  0
  7  9  1  0
  9 10  1  0
 10 11  2  0
 11 12  1  0
 11 13  1  0
 13 14  2  0
 14 15  1  0
 15 16  2  0
  8  3  1  0
 16 10  1  0
 16  6  1  0
  1 17  1  0
  1 18  1  0
  1 19  1  0
  4 20  1  0
  5 21  1  0
  8 22  1  0
  9 23  1  0
 12 24  1  0
 12 25  1  0
 12 26  1  0
 14 27  1  0
 15 28  1  0
M  END
>  <meeko>  (7) 
{"is_sidechain": [false], "free_energy": -6.412, "intermolecular_energy": -6.805, "internal_energy": -0.041}

$$$$
harmine_out
     RDKit          3D

 28 30  0  0  0  0  0  0  0  0999 V2000
   48.4050  162.2660   34.0150 C   0  0  0  0  0  0  0  0  0  0  0  0
   48.5000  162.2370   32.5970 O   0  0  0  0  0  0  0  0  0  0  0  0
   48.7400  161.0200   32.0160 C   0  0  0  0  0  0  0  0  0  0  0  0
   47.8460  159.9520   31.9620 C   0  0  0  0  0  0  0  0  0  0  0  0
   48.2010  158.7470   31.3380 C   0  0  0  0  0  0  0  0  0  0  0  0
   49.4780  158.6110   30.7560 C   0  0  0  0  0  0  0  0  0  0  0  0
   50.3520  159.6920   30.8220 C   0  0  0  0  0  0  0  0  0  0  0  0
   50.0130  160.9010   31.4410 C   0  0  0  0  0  0  0  0  0  0  0  0
   51.5130  159.3130   30.1910 N   0  0  0  0  0  0  0  0  0  0  0  0
   51.4200  158.0240   29.7190 C   0  0  0  0  0  0  0  0  0  0  0  0
   52.3510  157.2420   29.0240 C   0  0  0  0  0  0  0  0  0  0  0  0
   53.7210  157.7050   28.6400 C   0  0  0  0  0  0  0  0  0  0  0  0
   51.9830  155.9800   28.6770 N   0  0  0  0  0  0  0  0  0  0  0  0
   50.7550  155.5240   29.0040 C   0  0  0  0  0  0  0  0  0  0  0  0
   49.7980  156.2530   29.6900 C   0  0  0  0  0  0  0  0  0  0  0  0
   50.1510  157.5580   30.0600 C   0  0  0  0  0  0  0  0  0  0  0  0
   49.3700  161.9714   34.4532 H   0  0  0  0  0  0  0  0  0  0  0  0
   48.1480  163.2835   34.3445 H   0  0  0  0  0  0  0  0  0  0  0  0
   47.6235  161.5656   34.3445 H   0  0  0  0  0  0  0  0  0  0  0  0
   46.8489  160.0555   32.4147 H   0  0  0  0  0  0  0  0  0  0  0  0
   47.4862  157.9117   31.3028 H   0  0  0  0  0  0  0  0  0  0  0  0
   50.7275  161.7366   31.4753 H   0  0  0  0  0  0  0  0  0  0  0  0
   52.3050  159.8880   30.0920 H   0  0  0  0  0  0  0  0  0  0  0  0
   54.3089  157.9037   29.5483 H   0  0  0  0  0  0  0  0  0  0  0  0
   54.2182  156.9250   28.0447 H   0  0  0  0  0  0  0  0  0  0  0  0
   53.6431  158.6267   28.0447 H   0  0  0  0  0  0  0  0  0  0  0  0
   50.4956  154.4981   28.7035 H   0  0  0  0  0  0  0  0  0  0  0  0
   48.8119  155.8298   29.9320 H   0  0  0  0  0  0  0  0  0  0  0  0
  1  2  1  0
  2  3  1  0
  3  4  2  0
  4  5  1  0
  5  6  2  0
  6  7  1  0
  7  8  2  0
  7  9  1  0
  9 10  1  0
 10 11  2  0
 11 12  1  0
 11 13  1  0
 13 14  2  0
 14 15  1  0
 15 16  2  0
  8  3  1  0
 16 10  1  0
 16  6  1  0
  1 17  1  0
  1 18  1  0
  1 19  1  0
  4 20  1  0
  5 21  1  0
  8 22  1  0
  9 23  1  0
 12 24  1  0
 12 25  1  0
 12 26  1  0
 14 27  1  0
 15 28  1  0
M  END
>  <meeko>  (8) 
{"is_sidechain": [false], "free_energy": -6.379, "intermolecular_energy": -6.777, "internal_energy": -0.035}

$$$$
harmine_out
     RDKit          3D

 28 30  0  0  0  0  0  0  0  0999 V2000
   48.1770  161.5500   33.5520 C   0  0  0  0  0  0  0  0  0  0  0  0
   47.8490  160.7660   32.4130 O   0  0  0  0  0  0  0  0  0  0  0  0
   48.8940  160.2670   31.6820 C   0  0  0  0  0  0  0  0  0  0  0  0
   50.0280  160.9770   31.2910 C   0  0  0  0  0  0  0  0  0  0  0  0
   51.0400  160.3600   30.5390 C   0  0  0  0  0  0  0  0  0  0  0  0
   50.9110  159.0050   30.1730 C   0  0  0  0  0  0  0  0  0  0  0  0
   49.7690  158.3170   30.5770 C   0  0  0  0  0  0  0  0  0  0  0  0
   48.7510  158.9180   31.3270 C   0  0  0  0  0  0  0  0  0  0  0  0
   49.8820  157.0320   30.1030 N   0  0  0  0  0  0  0  0  0  0  0  0
   51.0570  156.8630   29.4070 C   0  0  0  0  0  0  0  0  0  0  0  0
   51.5760  155.7360   28.7600 C   0  0  0  0  0  0  0  0  0  0  0  0
   50.8930  154.4060   28.7060 C   0  0  0  0  0  0  0  0  0  0  0  0
   52.7810  155.8580   28.1410 N   0  0  0  0  0  0  0  0  0  0  0  0
   53.4310  157.0420   28.1660 C   0  0  0  0  0  0  0  0  0  0  0  0
   52.9640  158.1870   28.7890 C   0  0  0  0  0  0  0  0  0  0  0  0
   51.7240  158.0880   29.4350 C   0  0  0  0  0  0  0  0  0  0  0  0
   47.9408  160.9855   34.4661 H   0  0  0  0  0  0  0  0  0  0  0  0
   49.2506  161.7891   33.5358 H   0  0  0  0  0  0  0  0  0  0  0  0
   47.5935  162.4823   33.5358 H   0  0  0  0  0  0  0  0  0  0  0  0
   50.1312  162.0346   31.5754 H   0  0  0  0  0  0  0  0  0  0  0  0
   51.9299  160.9315   30.2366 H   0  0  0  0  0  0  0  0  0  0  0  0
   47.8614  158.3464   31.6302 H   0  0  0  0  0  0  0  0  0  0  0  0
   49.2110  156.3260   30.2420 H   0  0  0  0  0  0  0  0  0  0  0  0
   50.7085  154.0468   29.7292 H   0  0  0  0  0  0  0  0  0  0  0  0
   49.9352  154.5070   28.1746 H   0  0  0  0  0  0  0  0  0  0  0  0
   51.5331  153.6864   28.1746 H   0  0  0  0  0  0  0  0  0  0  0  0
   54.4027  157.1008   27.6538 H   0  0  0  0  0  0  0  0  0  0  0  0
   53.5367  159.1261   28.7776 H   0  0  0  0  0  0  0  0  0  0  0  0
  1  2  1  0
  2  3  1  0
  3  4  2  0
  4  5  1  0
  5  6  2  0
  6  7  1  0
  7  8  2  0
  7  9  1  0
  9 10  1  0
 10 11  2  0
 11 12  1  0
 11 13  1  0
 13 14  2  0
 14 15  1  0
 15 16  2  0
  8  3  1  0
 16 10  1  0
 16  6  1  0
  1 17  1  0
  1 18  1  0
  1 19  1  0
  4 20  1  0
  5 21  1  0
  8 22  1  0
  9 23  1  0
 12 24  1  0
 12 25  1  0
 12 26  1  0
 14 27  1  0
 15 28  1  0
M  END
>  <meeko>  (9) 
{"is_sidechain": [false], "free_energy": -6.255, "intermolecular_energy": -6.642, "internal_energy": -0.038}

$$$$
