isatin_out
     RDKit          3D

 16 17  0  0  0  0  0  0  0  0999 V2000
   51.0810  154.7810   28.2480 O   0  0  0  0  0  0  0  0  0  0  0  0
   51.7140  154.2190   27.3810 C   0  0  0  0  0  0  0  0  0  0  0  0
   52.2590  154.7630   26.2340 N   0  0  0  0  0  0  0  0  0  0  0  0
   52.9160  153.7900   25.4870 C   0  0  0  0  0  0  0  0  0  0  0  0
   53.5750  153.9630   24.2880 C   0  0  0  0  0  0  0  0  0  0  0  0
   54.1680  152.8330   23.7120 C   0  0  0  0  0  0  0  0  0  0  0  0
   54.0930  151.5700   24.3360 C   0  0  0  0  0  0  0  0  0  0  0  0
   53.4210  151.4110   25.5500 C   0  0  0  0  0  0  0  0  0  0  0  0
   52.8450  152.5400   26.0970 C   0  0  0  0  0  0  0  0  0  0  0  0
   52.0840  152.7090   27.3370 C   0  0  0  0  0  0  0  0  0  0  0  0
   51.8070  151.8570   28.1470 O   0  0  0  0  0  0  0  0  0  0  0  0
   52.1910  155.7120   25.9800 H   0  0  0  0  0  0  0  0  0  0  0  0
   53.6324  154.9490   23.8037 H   0  0  0  0  0  0  0  0  0  0  0  0
   54.7021  152.9318   22.7555 H   0  0  0  0  0  0  0  0  0  0  0  0
   54.5695  150.6999   23.8607 H   0  0  0  0  0  0  0  0  0  0  0  0
   53.3539  150.4320   26.0470 H   0  0  0  0  0  0  0  0  0  0  0  0
  1  2  2  0
  2  3  1  0
  3  4  1  0
  4  5  2  0
  5  6  1  0
  6  7  2  0
  7  8  1  0
  8  9  2  0
  9 10  1  0
 10 11  2  0
 10  2  1  0
  9  4  1  0
  3 12  1  0
  5 13  1  0
  6 14  1  0
  7 15  1  0
  8 16  1  0
M  END
>  <meeko>  (1) 
{"is_sidechain": [false], "free_energy": -7.288, "intermolecular_energy": -7.288, "internal_energy": 0.0}

$$$$
isatin_out
     RDKit          3D

 16 17  0  0  0  0  0  0  0  0999 V2000
   54.4370  150.4410   24.8040 O   0  0  0  0  0  0  0  0  0  0  0  0
   54.2550  151.6270   24.9660 C   0  0  0  0  0  0  0  0  0  0  0  0
   54.9130  152.6820   24.3630 N   0  0  0  0  0  0  0  0  0  0  0  0
   54.4150  153.9010   24.8140 C   0  0  0  0  0  0  0  0  0  0  0  0
   54.8270  155.1610   24.4360 C   0  0  0  0  0  0  0  0  0  0  0  0
   54.1780  156.2530   25.0240 C   0  0  0  0  0  0  0  0  0  0  0  0
   53.1440  156.0670   25.9670 C   0  0  0  0  0  0  0  0  0  0  0  0
   52.7390  154.7840   26.3390 C   0  0  0  0  0  0  0  0  0  0  0  0
   53.3940  153.7240   25.7450 C   0  0  0  0  0  0  0  0  0  0  0  0
   53.2120  152.2820   25.9150 C   0  0  0  0  0  0  0  0  0  0  0  0
   52.4190  151.7250   26.6380 O   0  0  0  0  0  0  0  0  0  0  0  0
   55.6370  152.5840   23.7040 H   0  0  0  0  0  0  0  0  0  0  0  0
   55.6336  155.3027   23.7016 H   0  0  0  0  0  0  0  0  0  0  0  0
   54.4790  157.2740   24.7464 H   0  0  0  0  0  0  0  0  0  0  0  0
   52.6517  156.9434   26.4138 H   0  0  0  0  0  0  0  0  0  0  0  0
   51.9345  154.6249   27.0721 H   0  0  0  0  0  0  0  0  0  0  0  0
  1  2  2  0
  2  3  1  0
  3  4  1  0
  4  5  2  0
  5  6  1  0
  6  7  2  0
  7  8  1  0
  8  9  2  0
  9 10  1  0
 10 11  2  0
 10  2  1  0
  9  4  1  0
  3 12  1  0
  5 13  1  0
  6 14  1  0
  7 15  1  0
  8 16  1  0
M  END
>  <meeko>  (2) 
{"is_sidechain": [false], "free_energy": -7.215, "intermolecular_energy": -7.215, "internal_energy": 0.0}

$$$$
isatin_out
     RDKit          3D

 16 17  0  0  0  0  0  0  0  0999 V2000
   51.8960  154.0760   28.9870 O   0  0  0  0  0  0  0  0  0  0  0  0
   52.3610  153.7410   27.9210 C   0  0  0  0  0  0  0  0  0  0  0  0
   52.6690  152.4660   27.4870 N   0  0  0  0  0  0  0  0  0  0  0  0
   53.1860  152.4920   26.1960 C   0  0  0  0  0  0  0  0  0  0  0  0
   53.6040  151.4150   25.4420 C   0  0  0  0  0  0  0  0  0  0  0  0
   54.0920  151.6800   24.1580 C   0  0  0  0  0  0  0  0  0  0  0  0
   54.1540  152.9970   23.6560 C   0  0  0  0  0  0  0  0  0  0  0  0
   53.7270  154.0780   24.4320 C   0  0  0  0  0  0  0  0  0  0  0  0
   53.2500  153.7900   25.6950 C   0  0  0  0  0  0  0  0  0  0  0  0
   52.7360  154.6790   26.7390 C   0  0  0  0  0  0  0  0  0  0  0  0
   52.6280  155.8820   26.6880 O   0  0  0  0  0  0  0  0  0  0  0  0
   52.5420  151.6490   28.0220 H   0  0  0  0  0  0  0  0  0  0  0  0
   53.5555  150.3887   25.8348 H   0  0  0  0  0  0  0  0  0  0  0  0
   54.4339  150.8457   23.5279 H   0  0  0  0  0  0  0  0  0  0  0  0
   54.5428  153.1750   22.6425 H   0  0  0  0  0  0  0  0  0  0  0  0
   53.7690  155.1102   24.0540 H   0  0  0  0  0  0  0  0  0  0  0  0
  1  2  2  0
  2  3  1  0
  3  4  1  0
  4  5  2  0
  5  6  1  0
  6  7  2  0
  7  8  1  0
  8  9  2  0
  9 10  1  0
 10 11  2  0
 10  2  1  0
  9  4  1  0
  3 12  1  0
  5 13  1  0
  6 14  1  0
  7 15  1  0
  8 16  1  0
M  END
>  <meeko>  (3) 
{"is_sidechain": [false], "free_energy": -7.002, "intermolecular_energy": -7.002, "internal_energy": 0.0}

$$$$
isatin_out
     RDKit          3D

 16 17  0  0  0  0  0  0  0  0999 V2000
   52.1420  150.8830   26.5830 O   0  0  0  0  0  0  0  0  0  0  0  0
   52.6290  151.9220   26.1940 C   0  0  0  0  0  0  0  0  0  0  0  0
   52.2050  153.2110   26.4480 N   0  0  0  0  0  0  0  0  0  0  0  0
   53.0310  154.1390   25.8210 C   0  0  0  0  0  0  0  0  0  0  0  0
   52.9160  155.5130   25.8500 C   0  0  0  0  0  0  0  0  0  0  0  0
   53.8680  156.2530   25.1400 C   0  0  0  0  0  0  0  0  0  0  0  0
   54.9040  155.6150   24.4250 C   0  0  0  0  0  0  0  0  0  0  0  0
   55.0070  154.2220   24.4050 C   0  0  0  0  0  0  0  0  0  0  0  0
   54.0560  153.5160   25.1130 C   0  0  0  0  0  0  0  0  0  0  0  0
   53.8860  152.0720   25.2910 C   0  0  0  0  0  0  0  0  0  0  0  0
   54.5760  151.1920   24.8320 O   0  0  0  0  0  0  0  0  0  0  0  0
   51.4220  153.4430   26.9990 H   0  0  0  0  0  0  0  0  0  0  0  0
   52.1080  156.0076   26.4091 H   0  0  0  0  0  0  0  0  0  0  0  0
   53.8078  157.3514   25.1392 H   0  0  0  0  0  0  0  0  0  0  0  0
   55.6394  156.2220   23.8767 H   0  0  0  0  0  0  0  0  0  0  0  0
   55.8086  153.7118   23.8508 H   0  0  0  0  0  0  0  0  0  0  0  0
  1  2  2  0
  2  3  1  0
  3  4  1  0
  4  5  2  0
  5  6  1  0
  6  7  2  0
  7  8  1  0
  8  9  2  0
  9 10  1  0
 10 11  2  0
 10  2  1  0
  9  4  1  0
  3 12  1  0
  5 13  1  0
  6 14  1  0
  7 15  1  0
  8 16  1  0
M  END
>  <meeko>  (4) 
{"is_sidechain": [false], "free_energy": -6.998, "intermolecular_energy": -6.998, "internal_energy": 0.0}

$$$$
isatin_out
     RDKit          3D

 16 17  0  0  0  0  0  0  0  0999 V2000
   54.0120  150.6810   24.7700 O   0  0  0  0  0  0  0  0  0  0  0  0
   53.7720  151.7910   25.1920 C   0  0  0  0  0  0  0  0  0  0  0  0
   53.3490  152.1500   26.4570 N   0  0  0  0  0  0  0  0  0  0  0  0
   53.1820  153.5280   26.5530 C   0  0  0  0  0  0  0  0  0  0  0  0
   52.7720  154.2440   27.6580 C   0  0  0  0  0  0  0  0  0  0  0  0
   52.6750  155.6330   27.5240 C   0  0  0  0  0  0  0  0  0  0  0  0
   52.9840  156.2730   26.3050 C   0  0  0  0  0  0  0  0  0  0  0  0
   53.3980  155.5340   25.1940 C   0  0  0  0  0  0  0  0  0  0  0  0
   53.4860  154.1650   25.3530 C   0  0  0  0  0  0  0  0  0  0  0  0
   53.8810  153.1250   24.4010 C   0  0  0  0  0  0  0  0  0  0  0  0
   54.2190  153.2760   23.2500 O   0  0  0  0  0  0  0  0  0  0  0  0
   53.1870  151.5150   27.1920 H   0  0  0  0  0  0  0  0  0  0  0  0
   52.5308  153.7428   28.6070 H   0  0  0  0  0  0  0  0  0  0  0  0
   52.3520  156.2373   28.3845 H   0  0  0  0  0  0  0  0  0  0  0  0
   52.8979  157.3670   26.2285 H   0  0  0  0  0  0  0  0  0  0  0  0
   53.6423  156.0197   24.2377 H   0  0  0  0  0  0  0  0  0  0  0  0
  1  2  2  0
  2  3  1  0
  3  4  1  0
  4  5  2  0
  5  6  1  0
  6  7  2  0
  7  8  1  0
  8  9  2  0
  9 10  1  0
 10 11  2  0
 10  2  1  0
  9  4  1  0
  3 12  1  0
  5 13  1  0
  6 14  1  0
  7 15  1  0
  8 16  1  0
M  END
>  <meeko>  (5) 
{"is_sidechain": [false], "free_energy": -6.883, "intermolecular_energy": -6.883, "internal_energy": 0.0}

$$$$
isatin_out
     RDKit          3D

 16 17  0  0  0  0  0  0  0  0999 V2000
   53.3980  161.4840   30.5120 O   0  0  0  0  0  0  0  0  0  0  0  0
   52.2830  161.1640   30.8580 C   0  0  0  0  0  0  0  0  0  0  0  0
   51.4420  161.8170   31.7380 N   0  0  0  0  0  0  0  0  0  0  0  0
   50.2380  161.1330   31.8760 C   0  0  0  0  0  0  0  0  0  0  0  0
   49.1640  161.4840   32.6660 C   0  0  0  0  0  0  0  0  0  0  0  0
   48.0480  160.6400   32.6460 C   0  0  0  0  0  0  0  0  0  0  0  0
   48.0260  159.4760   31.8480 C   0  0  0  0  0  0  0  0  0  0  0  0
   49.1220  159.1340   31.0530 C   0  0  0  0  0  0  0  0  0  0  0  0
   50.2090  159.9830   31.0900 C   0  0  0  0  0  0  0  0  0  0  0  0
   51.4920  159.9100   30.3870 C   0  0  0  0  0  0  0  0  0  0  0  0
   51.8530  159.0590   29.6100 O   0  0  0  0  0  0  0  0  0  0  0  0
   51.6660  162.6530   32.2070 H   0  0  0  0  0  0  0  0  0  0  0  0
   49.1836  162.3915   33.2874 H   0  0  0  0  0  0  0  0  0  0  0  0
   47.1721  160.8882   33.2633 H   0  0  0  0  0  0  0  0  0  0  0  0
   47.1352  158.8307   31.8523 H   0  0  0  0  0  0  0  0  0  0  0  0
   49.1189  158.2299   30.4265 H   0  0  0  0  0  0  0  0  0  0  0  0
  1  2  2  0
  2  3  1  0
  3  4  1  0
  4  5  2  0
  5  6  1  0
  6  7  2  0
  7  8  1  0
  8  9  2  0
  9 10  1  0
 10 11  2  0
 10  2  1  0
  9  4  1  0
  3 12  1  0
  5 13  1  0
  6 14  1  0
  7 15  1  0
  8 16  1  0
M  END
>  <meeko>  (6) 
{"is_sidechain": [false], "free_energy": -6.817, "intermolecular_energy": -6.817, "internal_energy": 0.0}

$$$$
isatin_out
     RDKit          3D

 16 17  0  0  0  0  0  0  0  0999 V2000
   51.7870  151.4570   27.4250 O   0  0  0  0  0  0  0  0  0  0  0  0
   52.3200  152.4020   26.8860 C   0  0  0  0  0  0  0  0  0  0  0  0
   53.3460  152.3910   25.9620 N   0  0  0  0  0  0  0  0  0  0  0  0
   53.6840  153.6850   25.5780 C   0  0  0  0  0  0  0  0  0  0  0  0
   54.6580  154.0620   24.6780 C   0  0  0  0  0  0  0  0  0  0  0  0
   54.8220  155.4320   24.4440 C   0  0  0  0  0  0  0  0  0  0  0  0
   54.0210  156.3870   25.1050 C   0  0  0  0  0  0  0  0  0  0  0  0
   53.0380  155.9900   26.0140 C   0  0  0  0  0  0  0  0  0  0  0  0
   52.8960  154.6340   26.2270 C   0  0  0  0  0  0  0  0  0  0  0  0
   51.9760  153.9040   27.1010 C   0  0  0  0  0  0  0  0  0  0  0  0
   51.1320  154.3710   27.8300 O   0  0  0  0  0  0  0  0  0  0  0  0
   53.7820  151.5760   25.6220 H   0  0  0  0  0  0  0  0  0  0  0  0
   55.2815  153.3155   24.1642 H   0  0  0  0  0  0  0  0  0  0  0  0
   55.5892  155.7703   23.7320 H   0  0  0  0  0  0  0  0  0  0  0  0
   54.1726  157.4574   24.9019 H   0  0  0  0  0  0  0  0  0  0  0  0
   52.4064  156.7240   26.5359 H   0  0  0  0  0  0  0  0  0  0  0  0
  1  2  2  0
  2  3  1  0
  3  4  1  0
  4  5  2  0
  5  6  1  0
  6  7  2  0
  7  8  1  0
  8  9  2  0
  9 10  1  0
 10 11  2  0
 10  2  1  0
  9  4  1  0
  3 12  1  0
  5 13  1  0
  6 14  1  0
  7 15  1  0
  8 16  1  0
M  END
>  <meeko>  (7) 
{"is_sidechain": [false], "free_energy": -6.805, "intermolecular_energy": -6.805, "internal_energy": 0.0}

$$$$
isatin_out
     RDKit          3D

 16 17  0  0  0  0  0  0  0  0999 V2000
   52.4150  158.5620   29.2630 O   0  0  0  0  0  0  0  0  0  0  0  0
   51.5250  159.0600   29.9150 C   0  0  0  0  0  0  0  0  0  0  0  0
   50.2710  158.5460   30.1810 N   0  0  0  0  0  0  0  0  0  0  0  0
   49.5310  159.4210   30.9700 C   0  0  0  0  0  0  0  0  0  0  0  0
   48.2440  159.2440   31.4310 C   0  0  0  0  0  0  0  0  0  0  0  0
   47.6960  160.2650   32.2170 C   0  0  0  0  0  0  0  0  0  0  0  0
   48.4350  161.4270   32.5230 C   0  0  0  0  0  0  0  0  0  0  0  0
   49.7380  161.5920   32.0490 C   0  0  0  0  0  0  0  0  0  0  0  0
   50.2550  160.5710   31.2770 C   0  0  0  0  0  0  0  0  0  0  0  0
   51.5660  160.4370   30.6380 C   0  0  0  0  0  0  0  0  0  0  0  0
   52.4800  161.2270   30.6700 O   0  0  0  0  0  0  0  0  0  0  0  0
   49.9440  157.6760   29.8540 H   0  0  0  0  0  0  0  0  0  0  0  0
   47.6703  158.3367   31.1909 H   0  0  0  0  0  0  0  0  0  0  0  0
   46.6713  160.1592   32.6026 H   0  0  0  0  0  0  0  0  0  0  0  0
   47.9790  162.2130   33.1428 H   0  0  0  0  0  0  0  0  0  0  0  0
   50.3250  162.4932   32.2799 H   0  0  0  0  0  0  0  0  0  0  0  0
  1  2  2  0
  2  3  1  0
  3  4  1  0
  4  5  2  0
  5  6  1  0
  6  7  2  0
  7  8  1  0
  8  9  2  0
  9 10  1  0
 10 11  2  0
 10  2  1  0
  9  4  1  0
  3 12  1  0
  5 13  1  0
  6 14  1  0
  7 15  1  0
  8 16  1  0
M  END
>  <meeko>  (8) 
{"is_sidechain": [false], "free_energy": -6.795, "intermolecular_energy": -6.795, "internal_energy": 0.0}

$$$$
isatin_out
     RDKit          3D

 16 17  0  0  0  0  0  0  0  0999 V2000
   53.0120  156.8290   28.8350 O   0  0  0  0  0  0  0  0  0  0  0  0
   52.1830  157.5640   29.3240 C   0  0  0  0  0  0  0  0  0  0  0  0
   52.3140  158.8990   29.6520 N   0  0  0  0  0  0  0  0  0  0  0  0
   51.1340  159.3970   30.1950 C   0  0  0  0  0  0  0  0  0  0  0  0
   50.8940  160.6800   30.6360 C   0  0  0  0  0  0  0  0  0  0  0  0
   49.6210  160.9570   31.1480 C   0  0  0  0  0  0  0  0  0  0  0  0
   48.6240  159.9590   31.2080 C   0  0  0  0  0  0  0  0  0  0  0  0
   48.8830  158.6630   30.7570 C   0  0  0  0  0  0  0  0  0  0  0  0
   50.1460  158.4160   30.2570 C   0  0  0  0  0  0  0  0  0  0  0  0
   50.7260  157.1860   29.7150 C   0  0  0  0  0  0  0  0  0  0  0  0
   50.1850  156.1110   29.5980 O   0  0  0  0  0  0  0  0  0  0  0  0
   53.1350  159.4280   29.5200 H   0  0  0  0  0  0  0  0  0  0  0  0
   51.6721  161.4561   30.5877 H   0  0  0  0  0  0  0  0  0  0  0  0
   49.3933  161.9704   31.5101 H   0  0  0  0  0  0  0  0  0  0  0  0
   47.6320  160.2052   31.6146 H   0  0  0  0  0  0  0  0  0  0  0  0
   48.1162  157.8754   30.7982 H   0  0  0  0  0  0  0  0  0  0  0  0
  1  2  2  0
  2  3  1  0
  3  4  1  0
  4  5  2  0
  5  6  1  0
  6  7  2  0
  7  8  1  0
  8  9  2  0
  9 10  1  0
 10 11  2  0
 10  2  1  0
  9  4  1  0
  3 12  1  0
  5 13  1  0
  6 14  1  0
  7 15  1  0
  8 16  1  0
M  END
>  <meeko>  (9) 
{"is_sidechain": [false], "free_energy": -6.772, "intermolecular_energy": -6.772, "internal_energy": 0.0}

$$$$
