kaempferol_out
     RDKit          3D

 31 33  0  0  0  0  0  0  0  0999 V2000
   52.5480  160.4310   30.3820 O   0  0  0  0  0  0  0  0  0  0  0  0
   51.7730  159.4940   30.2000 C   0  0  0  0  0  0  0  0  0  0  0  0
   52.2450  158.2380   29.5730 C   0  0  0  0  0  0  0  0  0  0  0  0
   53.5810  158.1730   29.2230 O   0  0  0  0  0  0  0  0  0  0  0  0
   51.3620  157.2370   29.3950 C   0  0  0  0  0  0  0  0  0  0  0  0
   51.7210  155.9350   28.7940 C   0  0  0  0  0  0  0  0  0  0  0  0
   51.5580  154.7280   29.4920 C   0  0  0  0  0  0  0  0  0  0  0  0
   51.9260  153.5090   28.9140 C   0  0  0  0  0  0  0  0  0  0  0  0
   52.4680  153.4940   27.6340 C   0  0  0  0  0  0  0  0  0  0  0  0
   52.8390  152.3290   27.0330 O   0  0  0  0  0  0  0  0  0  0  0  0
   52.6480  154.6750   26.9270 C   0  0  0  0  0  0  0  0  0  0  0  0
   52.2800  155.8920   27.5060 C   0  0  0  0  0  0  0  0  0  0  0  0
   50.0260  157.3060   29.7760 O   0  0  0  0  0  0  0  0  0  0  0  0
   49.5580  158.4590   30.3530 C   0  0  0  0  0  0  0  0  0  0  0  0
   48.2100  158.4890   30.7090 C   0  0  0  0  0  0  0  0  0  0  0  0
   47.6830  159.6340   31.2990 C   0  0  0  0  0  0  0  0  0  0  0  0
   46.3610  159.6220   31.6320 O   0  0  0  0  0  0  0  0  0  0  0  0
   48.4790  160.7510   31.5400 C   0  0  0  0  0  0  0  0  0  0  0  0
   49.8240  160.7150   31.1820 C   0  0  0  0  0  0  0  0  0  0  0  0
   50.5610  161.8400   31.4420 O   0  0  0  0  0  0  0  0  0  0  0  0
   50.3640  159.5690   30.5890 C   0  0  0  0  0  0  0  0  0  0  0  0
   54.2400  158.1810   29.8890 H   0  0  0  0  0  0  0  0  0  0  0  0
   51.1351  154.7413   30.5074 H   0  0  0  0  0  0  0  0  0  0  0  0
   51.7876  152.5689   29.4681 H   0  0  0  0  0  0  0  0  0  0  0  0
   53.1200  151.6010   27.5530 H   0  0  0  0  0  0  0  0  0  0  0  0
   53.0786  154.6527   25.9150 H   0  0  0  0  0  0  0  0  0  0  0  0
   52.4297  156.8274   26.9468 H   0  0  0  0  0  0  0  0  0  0  0  0
   47.5684  157.6147   30.5250 H   0  0  0  0  0  0  0  0  0  0  0  0
   45.7910  160.2920   31.3080 H   0  0  0  0  0  0  0  0  0  0  0  0
   48.0507  161.6501   32.0071 H   0  0  0  0  0  0  0  0  0  0  0  0
   50.1290  162.6510   31.6240 H   0  0  0  0  0  0  0  0  0  0  0  0
  1  2  2  0
  2  3  1  0
  3  4  1  0
  3  5  2  0
  5  6  1  0
  6  7  2  0
  7  8  1  0
  8  9  2  0
  9 10  1  0
  9 11  1  0
 11 12  2  0
  5 13  1  0
 13 14  1  0
 14 15  2  0
 15 16  1  0
 16 17  1  0
 16 18  2  0
 18 19  1  0
 19 20  1  0
 19 21  2  0
 21  2  1  0
 12  6  1  0
 21 14  1  0
  4 22  1  0
  7 23  1  0
  8 24  1  0
 10 25  1  0
 11 26  1  0
 12 27  1  0
 15 28  1  0
 17 29  1  0
 18 30  1  0
 20 31  1  0
M  END
>  <meeko>  (1) 
{"is_sidechain": [false], "free_energy": -9.696, "intermolecular_energy": -11.396, "internal_energy": -0.098}

$$$$
kaempferol_out
     RDKit          3D

 31 33  0  0  0  0  0  0  0  0999 V2000
   52.2320  152.8550   28.8350 O   0  0  0  0  0  0  0  0  0  0  0  0
   52.3120  154.0210   28.4560 C   0  0  0  0  0  0  0  0  0  0  0  0
   51.7180  155.1160   29.2560 C   0  0  0  0  0  0  0  0  0  0  0  0
   51.0930  154.7630   30.4380 O   0  0  0  0  0  0  0  0  0  0  0  0
   51.8320  156.3790   28.8040 C   0  0  0  0  0  0  0  0  0  0  0  0
   51.2920  157.5520   29.5240 C   0  0  0  0  0  0  0  0  0  0  0  0
   49.9850  157.5670   30.0360 C   0  0  0  0  0  0  0  0  0  0  0  0
   49.4850  158.6960   30.6940 C   0  0  0  0  0  0  0  0  0  0  0  0
   50.2910  159.8190   30.8340 C   0  0  0  0  0  0  0  0  0  0  0  0
   49.8450  160.9400   31.4680 O   0  0  0  0  0  0  0  0  0  0  0  0
   51.5830  159.8320   30.3280 C   0  0  0  0  0  0  0  0  0  0  0  0
   52.0820  158.7030   29.6720 C   0  0  0  0  0  0  0  0  0  0  0  0
   52.4880  156.7230   27.6260 O   0  0  0  0  0  0  0  0  0  0  0  0
   53.0420  155.7310   26.8600 C   0  0  0  0  0  0  0  0  0  0  0  0
   53.6800  156.1180   25.6820 C   0  0  0  0  0  0  0  0  0  0  0  0
   54.2610  155.1520   24.8660 C   0  0  0  0  0  0  0  0  0  0  0  0
   54.8750  155.5740   23.7240 O   0  0  0  0  0  0  0  0  0  0  0  0
   54.2170  153.8020   25.2070 C   0  0  0  0  0  0  0  0  0  0  0  0
   53.5780  153.4200   26.3840 C   0  0  0  0  0  0  0  0  0  0  0  0
   53.5640  152.0820   26.6700 O   0  0  0  0  0  0  0  0  0  0  0  0
   52.9910  154.3840   27.2110 C   0  0  0  0  0  0  0  0  0  0  0  0
   51.5180  154.1820   31.0370 H   0  0  0  0  0  0  0  0  0  0  0  0
   49.3457  156.6796   29.9184 H   0  0  0  0  0  0  0  0  0  0  0  0
   48.4616  158.6945   31.0974 H   0  0  0  0  0  0  0  0  0  0  0  0
   50.2840  161.2500   32.2370 H   0  0  0  0  0  0  0  0  0  0  0  0
   52.2120  160.7271   30.4426 H   0  0  0  0  0  0  0  0  0  0  0  0
   53.1048  158.7166   29.2674 H   0  0  0  0  0  0  0  0  0  0  0  0
   53.7238  157.1802   25.3995 H   0  0  0  0  0  0  0  0  0  0  0  0
   54.3910  156.0610   23.0860 H   0  0  0  0  0  0  0  0  0  0  0  0
   54.6810  153.0474   24.5549 H   0  0  0  0  0  0  0  0  0  0  0  0
   52.8740  151.5400   26.3440 H   0  0  0  0  0  0  0  0  0  0  0  0
  1  2  2  0
  2  3  1  0
  3  4  1  0
  3  5  2  0
  5  6  1  0
  6  7  2  0
  7  8  1  0
  8  9  2  0
  9 10  1  0
  9 11  1  0
 11 12  2  0
  5 13  1  0
 13 14  1  0
 14 15  2  0
 15 16  1  0
 16 17  1  0
 16 18  2  0
 18 19  1  0
 19 20  1  0
 19 21  2  0
 21  2  1  0
 12  6  1  0
 21 14  1  0
  4 22  1  0
  7 23  1  0
  8 24  1  0
 10 25  1  0
 11 26  1  0
 12 27  1  0
 15 28  1  0
 17 29  1  0
 18 30  1  0
 20 31  1  0
M  END
>  <meeko>  (2) 
{"is_sidechain": [false], "free_energy": -9.695, "intermolecular_energy": -11.469, "internal_energy": -0.025}

$$$$
kaempferol_out
     RDKit          3D

 31 33  0  0  0  0  0  0  0  0999 V2000
   52.2280  151.8850   28.0140 O   0  0  0  0  0  0  0  0  0  0  0  0
   52.4440  153.0480   27.6790 C   0  0  0  0  0  0  0  0  0  0  0  0
   51.9370  154.1730   28.4970 C   0  0  0  0  0  0  0  0  0  0  0  0
   51.2320  153.8510   29.6420 O   0  0  0  0  0  0  0  0  0  0  0  0
   52.2000  155.4300   28.0940 C   0  0  0  0  0  0  0  0  0  0  0  0
   51.7570  156.6300   28.8360 C   0  0  0  0  0  0  0  0  0  0  0  0
   52.5760  157.7630   28.9650 C   0  0  0  0  0  0  0  0  0  0  0  0
   52.1480  158.8790   29.6910 C   0  0  0  0  0  0  0  0  0  0  0  0
   50.8990  158.8620   30.3000 C   0  0  0  0  0  0  0  0  0  0  0  0
   50.4410  159.9270   31.0160 O   0  0  0  0  0  0  0  0  0  0  0  0
   50.0750  157.7500   30.1960 C   0  0  0  0  0  0  0  0  0  0  0  0
   50.5040  156.6350   29.4690 C   0  0  0  0  0  0  0  0  0  0  0  0
   52.9330  155.7410   26.9540 O   0  0  0  0  0  0  0  0  0  0  0  0
   53.4100  154.7200   26.1720 C   0  0  0  0  0  0  0  0  0  0  0  0
   54.1300  155.0750   25.0320 C   0  0  0  0  0  0  0  0  0  0  0  0
   54.6390  154.0790   24.2030 C   0  0  0  0  0  0  0  0  0  0  0  0
   55.3370  154.4700   23.1000 O   0  0  0  0  0  0  0  0  0  0  0  0
   54.4400  152.7310   24.4940 C   0  0  0  0  0  0  0  0  0  0  0  0
   53.7200  152.3820   25.6330 C   0  0  0  0  0  0  0  0  0  0  0  0
   53.5550  151.0440   25.8710 O   0  0  0  0  0  0  0  0  0  0  0  0
   53.2050  153.3760   26.4730 C   0  0  0  0  0  0  0  0  0  0  0  0
   50.2970  153.8960   29.6440 H   0  0  0  0  0  0  0  0  0  0  0  0
   53.5675  157.7730   28.4887 H   0  0  0  0  0  0  0  0  0  0  0  0
   52.7954  159.7639   29.7794 H   0  0  0  0  0  0  0  0  0  0  0  0
   51.0300  160.4150   31.5580 H   0  0  0  0  0  0  0  0  0  0  0  0
   49.0888  157.7457   30.6833 H   0  0  0  0  0  0  0  0  0  0  0  0
   49.8524  155.7521   29.3923 H   0  0  0  0  0  0  0  0  0  0  0  0
   54.2948  156.1351   24.7892 H   0  0  0  0  0  0  0  0  0  0  0  0
   56.1880  154.8500   23.1950 H   0  0  0  0  0  0  0  0  0  0  0  0
   54.8468  151.9524   23.8320 H   0  0  0  0  0  0  0  0  0  0  0  0
   52.7750  150.6100   25.5860 H   0  0  0  0  0  0  0  0  0  0  0  0
  1  2  2  0
  2  3  1  0
  3  4  1  0
  3  5  2  0
  5  6  1  0
  6  7  2  0
  7  8  1  0
  8  9  2  0
  9 10  1  0
  9 11  1  0
 11 12  2  0
  5 13  1  0
 13 14  1  0
 14 15  2  0
 15 16  1  0
 16 17  1  0
 16 18  2  0
 18 19  1  0
 19 20  1  0
 19 21  2  0
 21  2  1  0
 12  6  1  0
 21 14  1  0
  4 22  1  0
  7 23  1  0
  8 24  1  0
 10 25  1  0
 11 26  1  0
 12 27  1  0
 15 28  1  0
 17 29  1  0
 18 30  1  0
 20 31  1  0
M  END
>  <meeko>  (3) 
{"is_sidechain": [false], "free_energy": -9.207, "intermolecular_energy": -11.062, "internal_energy": 0.143}

$$$$
kaempferol_out
     RDKit          3D

 31 33  0  0  0  0  0  0  0  0999 V2000
   47.5850  158.3760   30.4560 O   0  0  0  0  0  0  0  0  0  0  0  0
   48.8030  158.3350   30.2950 C   0  0  0  0  0  0  0  0  0  0  0  0
   49.4440  157.1420   29.6970 C   0  0  0  0  0  0  0  0  0  0  0  0
   48.6120  156.1020   29.3250 O   0  0  0  0  0  0  0  0  0  0  0  0
   50.7800  157.1420   29.5370 C   0  0  0  0  0  0  0  0  0  0  0  0
   51.5270  156.0130   28.9400 C   0  0  0  0  0  0  0  0  0  0  0  0
   51.5140  154.7320   29.5140 C   0  0  0  0  0  0  0  0  0  0  0  0
   52.2450  153.6840   28.9460 C   0  0  0  0  0  0  0  0  0  0  0  0
   53.0020  153.9180   27.8040 C   0  0  0  0  0  0  0  0  0  0  0  0
   53.7300  152.9260   27.2180 O   0  0  0  0  0  0  0  0  0  0  0  0
   53.0400  155.1780   27.2240 C   0  0  0  0  0  0  0  0  0  0  0  0
   52.3070  156.2240   27.7920 C   0  0  0  0  0  0  0  0  0  0  0  0
   51.6030  158.2050   29.8920 O   0  0  0  0  0  0  0  0  0  0  0  0
   51.0400  159.3220   30.4540 C   0  0  0  0  0  0  0  0  0  0  0  0
   51.9010  160.3610   30.8060 C   0  0  0  0  0  0  0  0  0  0  0  0
   51.3830  161.5180   31.3790 C   0  0  0  0  0  0  0  0  0  0  0  0
   52.2600  162.5090   31.7070 O   0  0  0  0  0  0  0  0  0  0  0  0
   50.0160  161.6570   31.6080 C   0  0  0  0  0  0  0  0  0  0  0  0
   49.1600  160.6170   31.2560 C   0  0  0  0  0  0  0  0  0  0  0  0
   47.8270  160.8060   31.5030 O   0  0  0  0  0  0  0  0  0  0  0  0
   49.6720  159.4490   30.6790 C   0  0  0  0  0  0  0  0  0  0  0  0
   47.7790  155.9960   29.7410 H   0  0  0  0  0  0  0  0  0  0  0  0
   50.9210  154.5502   30.4225 H   0  0  0  0  0  0  0  0  0  0  0  0
   52.2211  152.6821   29.3995 H   0  0  0  0  0  0  0  0  0  0  0  0
   54.3850  153.1380   26.5810 H   0  0  0  0  0  0  0  0  0  0  0  0
   53.6441  155.3529   26.3215 H   0  0  0  0  0  0  0  0  0  0  0  0
   52.3418  157.2237   27.3343 H   0  0  0  0  0  0  0  0  0  0  0  0
   52.9830  160.2663   30.6317 H   0  0  0  0  0  0  0  0  0  0  0  0
   52.1150  163.0260   32.4750 H   0  0  0  0  0  0  0  0  0  0  0  0
   49.6179  162.5768   32.0612 H   0  0  0  0  0  0  0  0  0  0  0  0
   47.4260  160.3990   32.2460 H   0  0  0  0  0  0  0  0  0  0  0  0
  1  2  2  0
  2  3  1  0
  3  4  1  0
  3  5  2  0
  5  6  1  0
  6  7  2  0
  7  8  1  0
  8  9  2  0
  9 10  1  0
  9 11  1  0
 11 12  2  0
  5 13  1  0
 13 14  1  0
 14 15  2  0
 15 16  1  0
 16 17  1  0
 16 18  2  0
 18 19  1  0
 19 20  1  0
 19 21  2  0
 21  2  1  0
 12  6  1  0
 21 14  1  0
  4 22  1  0
  7 23  1  0
  8 24  1  0
 10 25  1  0
 11 26  1  0
 12 27  1  0
 15 28  1  0
 17 29  1  0
 18 30  1  0
 20 31  1  0
M  END
>  <meeko>  (4) 
{"is_sidechain": [false], "free_energy": -8.371, "intermolecular_energy": -9.778, "internal_energy": -0.16}

$$$$
kaempferol_out
     RDKit          3D

 31 33  0  0  0  0  0  0  0  0999 V2000
   48.8770  156.3090   30.0960 O   0  0  0  0  0  0  0  0  0  0  0  0
   49.9540  156.6990   29.6500 C   0  0  0  0  0  0  0  0  0  0  0  0
   50.7200  155.8650   28.6960 C   0  0  0  0  0  0  0  0  0  0  0  0
   50.1620  154.6540   28.3300 O   0  0  0  0  0  0  0  0  0  0  0  0
   51.8940  156.3330   28.2320 C   0  0  0  0  0  0  0  0  0  0  0  0
   52.7380  155.5960   27.2670 C   0  0  0  0  0  0  0  0  0  0  0  0
   53.2930  156.2240   26.1400 C   0  0  0  0  0  0  0  0  0  0  0  0
   54.0690  155.5040   25.2270 C   0  0  0  0  0  0  0  0  0  0  0  0
   54.2850  154.1460   25.4330 C   0  0  0  0  0  0  0  0  0  0  0  0
   55.0350  153.4060   24.5690 O   0  0  0  0  0  0  0  0  0  0  0  0
   53.7390  153.5000   26.5330 C   0  0  0  0  0  0  0  0  0  0  0  0
   52.9640  154.2220   27.4460 C   0  0  0  0  0  0  0  0  0  0  0  0
   52.4320  157.5650   28.5890 O   0  0  0  0  0  0  0  0  0  0  0  0
   51.7490  158.3570   29.4760 C   0  0  0  0  0  0  0  0  0  0  0  0
   52.3290  159.5790   29.8150 C   0  0  0  0  0  0  0  0  0  0  0  0
   51.6780  160.4220   30.7100 C   0  0  0  0  0  0  0  0  0  0  0  0
   52.2790  161.6080   31.0140 O   0  0  0  0  0  0  0  0  0  0  0  0
   50.4550  160.0660   31.2750 C   0  0  0  0  0  0  0  0  0  0  0  0
   49.8810  158.8440   30.9330 C   0  0  0  0  0  0  0  0  0  0  0  0
   48.6800  158.5450   31.5170 O   0  0  0  0  0  0  0  0  0  0  0  0
   50.5270  157.9900   30.0340 C   0  0  0  0  0  0  0  0  0  0  0  0
   50.6960  153.9940   27.9340 H   0  0  0  0  0  0  0  0  0  0  0  0
   53.1147  157.2966   25.9735 H   0  0  0  0  0  0  0  0  0  0  0  0
   54.5055  156.0080   24.3521 H   0  0  0  0  0  0  0  0  0  0  0  0
   55.9050  153.6800   24.3490 H   0  0  0  0  0  0  0  0  0  0  0  0
   53.9150  152.4250   26.6861 H   0  0  0  0  0  0  0  0  0  0  0  0
   52.5265  153.7076   28.3143 H   0  0  0  0  0  0  0  0  0  0  0  0
   53.2943  159.8743   29.3779 H   0  0  0  0  0  0  0  0  0  0  0  0
   51.9460  162.1360   31.7120 H   0  0  0  0  0  0  0  0  0  0  0  0
   49.9498  160.7409   31.9815 H   0  0  0  0  0  0  0  0  0  0  0  0
   48.1260  159.2320   31.8300 H   0  0  0  0  0  0  0  0  0  0  0  0
  1  2  2  0
  2  3  1  0
  3  4  1  0
  3  5  2  0
  5  6  1  0
  6  7  2  0
  7  8  1  0
  8  9  2  0
  9 10  1  0
  9 11  1  0
 11 12  2  0
  5 13  1  0
 13 14  1  0
 14 15  2  0
 15 16  1  0
 16 17  1  0
 16 18  2  0
 18 19  1  0
 19 20  1  0
 19 21  2  0
 21  2  1  0
 12  6  1  0
 21 14  1  0
  4 22  1  0
  7 23  1  0
  8 24  1  0
 10 25  1  0
 11 26  1  0
 12 27  1  0
 15 28  1  0
 17 29  1  0
 18 30  1  0
 20 31  1  0
M  END
>  <meeko>  (5) 
{"is_sidechain": [false], "free_energy": -6.89, "intermolecular_energy": -8.247, "internal_energy": 0.051}

$$$$
