lazabemide_out
     RDKit          3D

 24 24  0  0  0  0  0  0  0  0999 V2000
   54.7800  153.3330   23.3090 N   0  0  0  0  0  0  0  0  0  0  0  0
   54.0680  152.2860   24.0530 C   0  0  0  0  0  0  0  0  0  0  0  0
   54.5750  152.1670   25.4980 C   0  0  0  0  0  0  0  0  0  0  0  0
   54.1250  153.2620   26.3340 N   0  0  0  0  0  0  0  0  0  0  0  0
   52.9440  153.2260   27.0400 C   0  0  0  0  0  0  0  0  0  0  0  0
   52.2050  152.2490   27.0930 O   0  0  0  0  0  0  0  0  0  0  0  0
   52.6060  154.5040   27.7460 C   0  0  0  0  0  0  0  0  0  0  0  0
   51.8120  154.4770   28.8880 C   0  0  0  0  0  0  0  0  0  0  0  0
   51.5140  155.6860   29.5150 C   0  0  0  0  0  0  0  0  0  0  0  0
   52.0140  156.8690   28.9830 C   0  0  0  0  0  0  0  0  0  0  0  0
   51.6700  158.3770   29.7280 Cl  0  0  0  0  0  0  0  0  0  0  0  0
   52.7980  156.8040   27.8380 C   0  0  0  0  0  0  0  0  0  0  0  0
   53.1080  155.6490   27.1990 N   0  0  0  0  0  0  0  0  0  0  0  0
   54.7240  154.2120   23.8210 H   0  0  0  0  0  0  0  0  0  0  0  0
   54.3530  153.4460   22.3890 H   0  0  0  0  0  0  0  0  0  0  0  0
   55.7590  153.0650   23.1980 H   0  0  0  0  0  0  0  0  0  0  0  0
   52.9953  152.5290   24.0710 H   0  0  0  0  0  0  0  0  0  0  0  0
   54.2477  151.3256   23.5477 H   0  0  0  0  0  0  0  0  0  0  0  0
   54.2067  151.2224   25.9248 H   0  0  0  0  0  0  0  0  0  0  0  0
   55.6743  152.1960   25.4709 H   0  0  0  0  0  0  0  0  0  0  0  0
   54.6890  154.0660   26.4000 H   0  0  0  0  0  0  0  0  0  0  0  0
   51.4290  153.5258   29.2862 H   0  0  0  0  0  0  0  0  0  0  0  0
   50.8901  155.7036   30.4208 H   0  0  0  0  0  0  0  0  0  0  0  0
   53.1905  157.7451   27.4254 H   0  0  0  0  0  0  0  0  0  0  0  0
  1  2  1  0
  2  3  1  0
  3  4  1  0
  4  5  1  0
  5  6  2  0
  5  7  1  0
  7  8  2  0
  8  9  1  0
  9 10  2  0
 10 11  1  0
 10 12  1  0
 12 13  2  0
 13  7  1  0
  1 14  1  0
  1 15  1  0
  1 16  1  0
  2 17  1  0
  2 18  1  0
  3 19  1  0
  3 20  1  0
  4 21  1  0
  8 22  1  0
  9 23  1  0
 12 24  1  0
M  CHG  1   1   1
M  END
>  <meeko>  (1) 
{"is_sidechain": [false], "free_energy": -6.611, "intermolecular_energy": -7.963, "internal_energy": -0.186}

$$$$
lazabemide_out
     RDKit          3D

 24 24  0  0  0  0  0  0  0  0999 V2000
   54.4620  148.4920   24.5700 N   0  0  0  0  0  0  0  0  0  0  0  0
   53.6560  149.5940   25.1100 C   0  0  0  0  0  0  0  0  0  0  0  0
   54.0930  150.9530   24.5420 C   0  0  0  0  0  0  0  0  0  0  0  0
   53.6840  152.0610   25.3820 N   0  0  0  0  0  0  0  0  0  0  0  0
   53.4750  153.3310   24.8950 C   0  0  0  0  0  0  0  0  0  0  0  0
   53.5390  153.6300   23.7080 O   0  0  0  0  0  0  0  0  0  0  0  0
   53.1740  154.3550   25.9470 C   0  0  0  0  0  0  0  0  0  0  0  0
   53.2690  155.7100   25.6430 C   0  0  0  0  0  0  0  0  0  0  0  0
   52.9860  156.6350   26.6480 C   0  0  0  0  0  0  0  0  0  0  0  0
   52.6240  156.1770   27.9100 C   0  0  0  0  0  0  0  0  0  0  0  0
   52.2670  157.2850   29.1710 Cl  0  0  0  0  0  0  0  0  0  0  0  0
   52.5560  154.8070   28.1260 C   0  0  0  0  0  0  0  0  0  0  0  0
   52.8250  153.8770   27.1760 N   0  0  0  0  0  0  0  0  0  0  0  0
   53.9800  147.6080   24.7330 H   0  0  0  0  0  0  0  0  0  0  0  0
   55.3700  148.4760   25.0340 H   0  0  0  0  0  0  0  0  0  0  0  0
   54.5940  148.6270   23.5670 H   0  0  0  0  0  0  0  0  0  0  0  0
   52.6006  149.4229   24.8515 H   0  0  0  0  0  0  0  0  0  0  0  0
   53.7974  149.6181   26.2006 H   0  0  0  0  0  0  0  0  0  0  0  0
   55.1894  150.9628   24.4537 H   0  0  0  0  0  0  0  0  0  0  0  0
   53.6082  151.0783   23.5626 H   0  0  0  0  0  0  0  0  0  0  0  0
   53.5480  151.8970   26.3440 H   0  0  0  0  0  0  0  0  0  0  0  0
   53.5599  156.0429   24.6358 H   0  0  0  0  0  0  0  0  0  0  0  0
   53.0485  157.7142   26.4445 H   0  0  0  0  0  0  0  0  0  0  0  0
   52.2667  154.4550   29.1272 H   0  0  0  0  0  0  0  0  0  0  0  0
  1  2  1  0
  2  3  1  0
  3  4  1  0
  4  5  1  0
  5  6  2  0
  5  7  1  0
  7  8  2  0
  8  9  1  0
  9 10  2  0
 10 11  1  0
 10 12  1  0
 12 13  2  0
 13  7  1  0
  1 14  1  0
  1 15  1  0
  1 16  1  0
  2 17  1  0
  2 18  1  0
  3 19  1  0
  3 20  1  0
  4 21  1  0
  8 22  1  0
  9 23  1  0
 12 24  1  0
M  CHG  1   1   1
M  END
>  <meeko>  (2) 
{"is_sidechain": [false], "free_energy": -6.57, "intermolecular_energy": -7.959, "internal_energy": -0.14}

$$$$
lazabemide_out
     RDKit          3D

 24 24  0  0  0  0  0  0  0  0999 V2000
   51.8080  155.4050   29.6450 N   0  0  0  0  0  0  0  0  0  0  0  0
   51.9810  156.8180   29.2840 C   0  0  0  0  0  0  0  0  0  0  0  0
   52.6150  156.9790   27.8950 C   0  0  0  0  0  0  0  0  0  0  0  0
   52.9870  155.7070   27.3060 N   0  0  0  0  0  0  0  0  0  0  0  0
   53.1870  155.5390   25.9550 C   0  0  0  0  0  0  0  0  0  0  0  0
   53.1450  156.4510   25.1360 O   0  0  0  0  0  0  0  0  0  0  0  0
   53.4470  154.1240   25.5390 C   0  0  0  0  0  0  0  0  0  0  0  0
   53.9540  153.8550   24.2720 C   0  0  0  0  0  0  0  0  0  0  0  0
   54.1790  152.5250   23.9170 C   0  0  0  0  0  0  0  0  0  0  0  0
   53.8920  151.5190   24.8340 C   0  0  0  0  0  0  0  0  0  0  0  0
   54.1570  149.8720   24.4350 Cl  0  0  0  0  0  0  0  0  0  0  0  0
   53.3870  151.8780   26.0770 C   0  0  0  0  0  0  0  0  0  0  0  0
   53.1520  153.1580   26.4580 N   0  0  0  0  0  0  0  0  0  0  0  0
   51.4220  154.8960   28.8510 H   0  0  0  0  0  0  0  0  0  0  0  0
   51.1710  155.3330   30.4390 H   0  0  0  0  0  0  0  0  0  0  0  0
   52.7120  155.0060   29.8980 H   0  0  0  0  0  0  0  0  0  0  0  0
   50.9965  157.3087   29.2849 H   0  0  0  0  0  0  0  0  0  0  0  0
   52.6538  157.2792   30.0221 H   0  0  0  0  0  0  0  0  0  0  0  0
   51.8920  157.4771   27.2323 H   0  0  0  0  0  0  0  0  0  0  0  0
   53.5320  157.5752   28.0121 H   0  0  0  0  0  0  0  0  0  0  0  0
   53.1040  154.9300   27.9000 H   0  0  0  0  0  0  0  0  0  0  0  0
   54.1721  154.6710   23.5673 H   0  0  0  0  0  0  0  0  0  0  0  0
   54.5788  152.2744   22.9233 H   0  0  0  0  0  0  0  0  0  0  0  0
   53.1642  151.0756   26.7957 H   0  0  0  0  0  0  0  0  0  0  0  0
  1  2  1  0
  2  3  1  0
  3  4  1  0
  4  5  1  0
  5  6  2  0
  5  7  1  0
  7  8  2  0
  8  9  1  0
  9 10  2  0
 10 11  1  0
 10 12  1  0
 12 13  2  0
 13  7  1  0
  1 14  1  0
  1 15  1  0
  1 16  1  0
  2 17  1  0
  2 18  1  0
  3 19  1  0
  3 20  1  0
  4 21  1  0
  8 22  1  0
  9 23  1  0
 12 24  1  0
M  CHG  1   1   1
M  END
>  <meeko>  (3) 
{"is_sidechain": [false], "free_energy": -6.488, "intermolecular_energy": -7.817, "internal_energy": -0.184}

$$$$
lazabemide_out
     RDKit          3D

 24 24  0  0  0  0  0  0  0  0999 V2000
   56.0520  153.2730   25.1450 N   0  0  0  0  0  0  0  0  0  0  0  0
   54.7230  152.8110   24.7240 C   0  0  0  0  0  0  0  0  0  0  0  0
   53.8110  152.5230   25.9260 C   0  0  0  0  0  0  0  0  0  0  0  0
   53.4730  153.7240   26.6630 N   0  0  0  0  0  0  0  0  0  0  0  0
   52.6830  153.7120   27.7900 C   0  0  0  0  0  0  0  0  0  0  0  0
   52.2560  152.6910   28.3180 O   0  0  0  0  0  0  0  0  0  0  0  0
   52.3550  155.0700   28.3310 C   0  0  0  0  0  0  0  0  0  0  0  0
   51.3500  155.2140   29.2820 C   0  0  0  0  0  0  0  0  0  0  0  0
   51.0690  156.4940   29.7600 C   0  0  0  0  0  0  0  0  0  0  0  0
   51.7970  157.5750   29.2740 C   0  0  0  0  0  0  0  0  0  0  0  0
   51.4810  159.1650   29.8390 Cl  0  0  0  0  0  0  0  0  0  0  0  0
   52.7820  157.3400   28.3240 C   0  0  0  0  0  0  0  0  0  0  0  0
   53.0830  156.1120   27.8340 N   0  0  0  0  0  0  0  0  0  0  0  0
   56.6790  153.2820   24.3410 H   0  0  0  0  0  0  0  0  0  0  0  0
   56.4210  152.6430   25.8570 H   0  0  0  0  0  0  0  0  0  0  0  0
   55.9790  154.2150   25.5290 H   0  0  0  0  0  0  0  0  0  0  0  0
   54.2565  153.5888   24.1016 H   0  0  0  0  0  0  0  0  0  0  0  0
   54.8496  151.8755   24.1595 H   0  0  0  0  0  0  0  0  0  0  0  0
   52.8826  152.0589   25.5618 H   0  0  0  0  0  0  0  0  0  0  0  0
   54.3558  151.8533   26.6076 H   0  0  0  0  0  0  0  0  0  0  0  0
   53.8260  154.5870   26.3450 H   0  0  0  0  0  0  0  0  0  0  0  0
   50.7908  154.3403   29.6479 H   0  0  0  0  0  0  0  0  0  0  0  0
   50.2811  156.6467   30.5123 H   0  0  0  0  0  0  0  0  0  0  0  0
   53.3522  158.2015   27.9463 H   0  0  0  0  0  0  0  0  0  0  0  0
  1  2  1  0
  2  3  1  0
  3  4  1  0
  4  5  1  0
  5  6  2  0
  5  7  1  0
  7  8  2  0
  8  9  1  0
  9 10  2  0
 10 11  1  0
 10 12  1  0
 12 13  2  0
 13  7  1  0
  1 14  1  0
  1 15  1  0
  1 16  1  0
  2 17  1  0
  2 18  1  0
  3 19  1  0
  3 20  1  0
  4 21  1  0
  8 22  1  0
  9 23  1  0
 12 24  1  0
M  CHG  1   1   1
M  END
>  <meeko>  (4) 
{"is_sidechain": [false], "free_energy": -6.474, "intermolecular_energy": -7.834, "internal_energy": -0.151}

$$$$
lazabemide_out
     RDKit          3D

 24 24  0  0  0  0  0  0  0  0999 V2000
   53.7360  153.2630   28.6130 N   0  0  0  0  0  0  0  0  0  0  0  0
   52.4650  153.9620   28.3870 C   0  0  0  0  0  0  0  0  0  0  0  0
   52.6820  155.3900   27.8650 C   0  0  0  0  0  0  0  0  0  0  0  0
   51.8490  156.3610   28.5470 N   0  0  0  0  0  0  0  0  0  0  0  0
   52.3390  157.5440   29.0510 C   0  0  0  0  0  0  0  0  0  0  0  0
   53.4960  157.9240   28.9080 O   0  0  0  0  0  0  0  0  0  0  0  0
   51.3390  158.3490   29.8240 C   0  0  0  0  0  0  0  0  0  0  0  0
   50.0750  157.8250   30.0770 C   0  0  0  0  0  0  0  0  0  0  0  0
   49.1680  158.6040   30.7950 C   0  0  0  0  0  0  0  0  0  0  0  0
   49.5530  159.8680   31.2300 C   0  0  0  0  0  0  0  0  0  0  0  0
   48.4650  160.8560   32.1170 Cl  0  0  0  0  0  0  0  0  0  0  0  0
   50.8340  160.3120   30.9300 C   0  0  0  0  0  0  0  0  0  0  0  0
   51.7430  159.5860   30.2340 N   0  0  0  0  0  0  0  0  0  0  0  0
   54.4640  153.9440   28.8270 H   0  0  0  0  0  0  0  0  0  0  0  0
   53.9910  152.7430   27.7740 H   0  0  0  0  0  0  0  0  0  0  0  0
   53.6340  152.6170   29.3960 H   0  0  0  0  0  0  0  0  0  0  0  0
   51.8759  153.3989   27.6482 H   0  0  0  0  0  0  0  0  0  0  0  0
   51.9360  154.0274   29.3492 H   0  0  0  0  0  0  0  0  0  0  0  0
   53.7370  155.6637   28.0133 H   0  0  0  0  0  0  0  0  0  0  0  0
   52.4078  155.4027   26.7998 H   0  0  0  0  0  0  0  0  0  0  0  0
   50.8890  156.1650   28.6540 H   0  0  0  0  0  0  0  0  0  0  0  0
   49.7983  156.8221   29.7199 H   0  0  0  0  0  0  0  0  0  0  0  0
   48.1597  158.2233   31.0148 H   0  0  0  0  0  0  0  0  0  0  0  0
   51.1289  161.3130   31.2780 H   0  0  0  0  0  0  0  0  0  0  0  0
  1  2  1  0
  2  3  1  0
  3  4  1  0
  4  5  1  0
  5  6  2  0
  5  7  1  0
  7  8  2  0
  8  9  1  0
  9 10  2  0
 10 11  1  0
 10 12  1  0
 12 13  2  0
 13  7  1  0
  1 14  1  0
  1 15  1  0
  1 16  1  0
  2 17  1  0
  2 18  1  0
  3 19  1  0
  3 20  1  0
  4 21  1  0
  8 22  1  0
  9 23  1  0
 12 24  1  0
M  CHG  1   1   1
M  END
>  <meeko>  (5) 
{"is_sidechain": [false], "free_energy": -6.332, "intermolecular_energy": -7.661, "internal_energy": -0.151}

$$$$
lazabemide_out
     RDKit          3D

 24 24  0  0  0  0  0  0  0  0999 V2000
   53.6450  153.2640   28.5620 N   0  0  0  0  0  0  0  0  0  0  0  0
   52.4000  154.0380   28.4930 C   0  0  0  0  0  0  0  0  0  0  0  0
   52.6450  155.4730   28.0010 C   0  0  0  0  0  0  0  0  0  0  0  0
   51.8050  156.4410   28.6790 N   0  0  0  0  0  0  0  0  0  0  0  0
   52.2750  157.6580   29.1200 C   0  0  0  0  0  0  0  0  0  0  0  0
   53.4110  158.0690   28.9180 O   0  0  0  0  0  0  0  0  0  0  0  0
   51.2770  158.4590   29.9000 C   0  0  0  0  0  0  0  0  0  0  0  0
   51.6220  159.7200   30.3760 C   0  0  0  0  0  0  0  0  0  0  0  0
   50.6700  160.4350   31.1030 C   0  0  0  0  0  0  0  0  0  0  0  0
   49.4200  159.8690   31.3270 C   0  0  0  0  0  0  0  0  0  0  0  0
   48.2230  160.7180   32.2160 Cl  0  0  0  0  0  0  0  0  0  0  0  0
   49.1620  158.6030   30.8160 C   0  0  0  0  0  0  0  0  0  0  0  0
   50.0610  157.8770   30.1070 N   0  0  0  0  0  0  0  0  0  0  0  0
   53.4850  152.4080   29.0920 H   0  0  0  0  0  0  0  0  0  0  0  0
   54.3660  153.8200   29.0210 H   0  0  0  0  0  0  0  0  0  0  0  0
   53.9500  153.0260   27.6170 H   0  0  0  0  0  0  0  0  0  0  0  0
   51.7079  153.5375   27.7998 H   0  0  0  0  0  0  0  0  0  0  0  0
   51.9754  154.0924   29.5063 H   0  0  0  0  0  0  0  0  0  0  0  0
   53.6987  155.7328   28.1803 H   0  0  0  0  0  0  0  0  0  0  0  0
   52.3980  155.5069   26.9296 H   0  0  0  0  0  0  0  0  0  0  0  0
   50.8580  156.2180   28.8300 H   0  0  0  0  0  0  0  0  0  0  0  0
   52.6195  160.1422   30.1841 H   0  0  0  0  0  0  0  0  0  0  0  0
   50.9057  161.4355   31.4947 H   0  0  0  0  0  0  0  0  0  0  0  0
   48.1699  158.1639   30.9974 H   0  0  0  0  0  0  0  0  0  0  0  0
  1  2  1  0
  2  3  1  0
  3  4  1  0
  4  5  1  0
  5  6  2  0
  5  7  1  0
  7  8  2  0
  8  9  1  0
  9 10  2  0
 10 11  1  0
 10 12  1  0
 12 13  2  0
 13  7  1  0
  1 14  1  0
  1 15  1  0
  1 16  1  0
  2 17  1  0
  2 18  1  0
  3 19  1  0
  3 20  1  0
  4 21  1  0
  8 22  1  0
  9 23  1  0
 12 24  1  0
M  CHG  1   1   1
M  END
>  <meeko>  (6) 
{"is_sidechain": [false], "free_energy": -6.315, "intermolecular_energy": -7.647, "internal_energy": -0.146}

$$$$
lazabemide_out
     RDKit          3D

 24 24  0  0  0  0  0  0  0  0999 V2000
   55.2400  161.2680   30.3920 N   0  0  0  0  0  0  0  0  0  0  0  0
   54.3810  162.2620   31.0480 C   0  0  0  0  0  0  0  0  0  0  0  0
   52.8970  161.8720   30.9740 C   0  0  0  0  0  0  0  0  0  0  0  0
   52.7040  160.5270   30.4690 N   0  0  0  0  0  0  0  0  0  0  0  0
   51.4630  160.0160   30.1610 C   0  0  0  0  0  0  0  0  0  0  0  0
   50.4230  160.6620   30.2090 O   0  0  0  0  0  0  0  0  0  0  0  0
   51.4700  158.5690   29.7700 C   0  0  0  0  0  0  0  0  0  0  0  0
   50.3800  157.7620   30.0790 C   0  0  0  0  0  0  0  0  0  0  0  0
   50.4240  156.4190   29.7040 C   0  0  0  0  0  0  0  0  0  0  0  0
   51.5450  155.9350   29.0400 C   0  0  0  0  0  0  0  0  0  0  0  0
   51.6350  154.2900   28.5610 Cl  0  0  0  0  0  0  0  0  0  0  0  0
   52.5890  156.8120   28.7730 C   0  0  0  0  0  0  0  0  0  0  0  0
   52.5850  158.1220   29.1220 N   0  0  0  0  0  0  0  0  0  0  0  0
   55.8650  160.8520   31.0820 H   0  0  0  0  0  0  0  0  0  0  0  0
   55.7900  161.7230   29.6640 H   0  0  0  0  0  0  0  0  0  0  0  0
   54.6600  160.5400   29.9750 H   0  0  0  0  0  0  0  0  0  0  0  0
   54.6751  162.3446   32.1047 H   0  0  0  0  0  0  0  0  0  0  0  0
   54.5085  163.2216   30.5257 H   0  0  0  0  0  0  0  0  0  0  0  0
   52.4641  161.9360   31.9832 H   0  0  0  0  0  0  0  0  0  0  0  0
   52.4020  162.5658   30.2786 H   0  0  0  0  0  0  0  0  0  0  0  0
   53.4940  159.9540   30.3400 H   0  0  0  0  0  0  0  0  0  0  0  0
   49.5057  158.1723   30.6056 H   0  0  0  0  0  0  0  0  0  0  0  0
   49.5807  155.7504   29.9314 H   0  0  0  0  0  0  0  0  0  0  0  0
   53.4718  156.4199   28.2468 H   0  0  0  0  0  0  0  0  0  0  0  0
  1  2  1  0
  2  3  1  0
  3  4  1  0
  4  5  1  0
  5  6  2  0
  5  7  1  0
  7  8  2  0
  8  9  1  0
  9 10  2  0
 10 11  1  0
 10 12  1  0
 12 13  2  0
 13  7  1  0
  1 14  1  0
  1 15  1  0
  1 16  1  0
  2 17  1  0
  2 18  1  0
  3 19  1  0
  3 20  1  0
  4 21  1  0
  8 22  1  0
  9 23  1  0
 12 24  1  0
M  CHG  1   1   1
M  END
>  <meeko>  (7) 
{"is_sidechain": [false], "free_energy": -6.184, "intermolecular_energy": -7.472, "internal_energy": -0.163}

$$$$
lazabemide_out
     RDKit          3D

 24 24  0  0  0  0  0  0  0  0999 V2000
   56.0900  162.6760   29.8240 N   0  0  0  0  0  0  0  0  0  0  0  0
   56.0410  161.7820   30.9880 C   0  0  0  0  0  0  0  0  0  0  0  0
   55.0540  162.2830   32.0530 C   0  0  0  0  0  0  0  0  0  0  0  0
   53.7680  161.6190   31.9710 N   0  0  0  0  0  0  0  0  0  0  0  0
   52.8840  161.8270   30.9360 C   0  0  0  0  0  0  0  0  0  0  0  0
   53.1240  162.5250   29.9580 O   0  0  0  0  0  0  0  0  0  0  0  0
   51.5640  161.1370   31.1030 C   0  0  0  0  0  0  0  0  0  0  0  0
   51.2670  160.0160   30.3340 C   0  0  0  0  0  0  0  0  0  0  0  0
   50.0270  159.4020   30.5120 C   0  0  0  0  0  0  0  0  0  0  0  0
   49.1360  159.9260   31.4430 C   0  0  0  0  0  0  0  0  0  0  0  0
   47.6020  159.1980   31.6910 Cl  0  0  0  0  0  0  0  0  0  0  0  0
   49.5160  161.0500   32.1660 C   0  0  0  0  0  0  0  0  0  0  0  0
   50.7100  161.6750   32.0200 N   0  0  0  0  0  0  0  0  0  0  0  0
   55.2670  163.2770   29.8230 H   0  0  0  0  0  0  0  0  0  0  0  0
   56.1070  162.1200   28.9690 H   0  0  0  0  0  0  0  0  0  0  0  0
   56.9310  163.2510   29.8720 H   0  0  0  0  0  0  0  0  0  0  0  0
   55.7277  160.7815   30.6552 H   0  0  0  0  0  0  0  0  0  0  0  0
   57.0440  161.7535   31.4388 H   0  0  0  0  0  0  0  0  0  0  0  0
   55.4843  162.0978   33.0483 H   0  0  0  0  0  0  0  0  0  0  0  0
   54.8888  163.3564   31.8785 H   0  0  0  0  0  0  0  0  0  0  0  0
   53.5170  160.9900   32.6860 H   0  0  0  0  0  0  0  0  0  0  0  0
   51.9912  159.6241   29.6046 H   0  0  0  0  0  0  0  0  0  0  0  0
   49.7568  158.5133   29.9227 H   0  0  0  0  0  0  0  0  0  0  0  0
   48.8056  161.4570   32.9007 H   0  0  0  0  0  0  0  0  0  0  0  0
  1  2  1  0
  2  3  1  0
  3  4  1  0
  4  5  1  0
  5  6  2  0
  5  7  1  0
  7  8  2  0
  8  9  1  0
  9 10  2  0
 10 11  1  0
 10 12  1  0
 12 13  2  0
 13  7  1  0
  1 14  1  0
  1 15  1  0
  1 16  1  0
  2 17  1  0
  2 18  1  0
  3 19  1  0
  3 20  1  0
  4 21  1  0
  8 22  1  0
  9 23  1  0
 12 24  1  0
M  CHG  1   1   1
M  END
>  <meeko>  (8) 
{"is_sidechain": [false], "free_energy": -5.965, "intermolecular_energy": -7.175, "internal_energy": -0.196}

$$$$
lazabemide_out
     RDKit          3D

 24 24  0  0  0  0  0  0  0  0999 V2000
   49.3460  160.7720   29.7900 N   0  0  0  0  0  0  0  0  0  0  0  0
   49.8190  159.5540   30.4610 C   0  0  0  0  0  0  0  0  0  0  0  0
   51.2650  159.2130   30.0740 C   0  0  0  0  0  0  0  0  0  0  0  0
   51.3880  157.8820   29.5130 N   0  0  0  0  0  0  0  0  0  0  0  0
   52.5450  157.4220   28.9260 C   0  0  0  0  0  0  0  0  0  0  0  0
   53.5940  158.0550   28.8870 O   0  0  0  0  0  0  0  0  0  0  0  0
   52.4250  156.0640   28.3030 C   0  0  0  0  0  0  0  0  0  0  0  0
   52.8270  155.8680   26.9850 C   0  0  0  0  0  0  0  0  0  0  0  0
   52.6960  154.5930   26.4370 C   0  0  0  0  0  0  0  0  0  0  0  0
   52.1730  153.5670   27.2170 C   0  0  0  0  0  0  0  0  0  0  0  0
   51.9980  151.9850   26.5780 Cl  0  0  0  0  0  0  0  0  0  0  0  0
   51.7960  153.8530   28.5230 C   0  0  0  0  0  0  0  0  0  0  0  0
   51.9050  155.0790   29.0910 N   0  0  0  0  0  0  0  0  0  0  0  0
   48.8580  160.5180   28.9310 H   0  0  0  0  0  0  0  0  0  0  0  0
   50.1430  161.3670   29.5660 H   0  0  0  0  0  0  0  0  0  0  0  0
   48.7090  161.2750   30.4070 H   0  0  0  0  0  0  0  0  0  0  0  0
   49.7681  159.7048   31.5494 H   0  0  0  0  0  0  0  0  0  0  0  0
   49.1756  158.7192   30.1463 H   0  0  0  0  0  0  0  0  0  0  0  0
   51.6130  159.9438   29.3291 H   0  0  0  0  0  0  0  0  0  0  0  0
   51.8743  159.2487   30.9891 H   0  0  0  0  0  0  0  0  0  0  0  0
   50.6090  157.2800   29.5550 H   0  0  0  0  0  0  0  0  0  0  0  0
   53.2375  156.6979   26.3911 H   0  0  0  0  0  0  0  0  0  0  0  0
   53.0031  154.4003   25.3985 H   0  0  0  0  0  0  0  0  0  0  0  0
   51.3842  153.0354   29.1330 H   0  0  0  0  0  0  0  0  0  0  0  0
  1  2  1  0
  2  3  1  0
  3  4  1  0
  4  5  1  0
  5  6  2  0
  5  7  1  0
  7  8  2  0
  8  9  1  0
  9 10  2  0
 10 11  1  0
 10 12  1  0
 12 13  2  0
 13  7  1  0
  1 14  1  0
  1 15  1  0
  1 16  1  0
  2 17  1  0
  2 18  1  0
  3 19  1  0
  3 20  1  0
  4 21  1  0
  8 22  1  0
  9 23  1  0
 12 24  1  0
M  CHG  1   1   1
M  END
>  <meeko>  (9) 
{"is_sidechain": [false], "free_energy": -5.838, "intermolecular_energy": -7.093, "internal_energy": -0.125}

$$$$
