quercetin_out
     RDKit          3D

 32 34  0  0  0  0  0  0  0  0999 V2000
   52.4940  160.6940   30.4800 O   0  0  0  0  0  0  0  0  0  0  0  0
   51.7620  159.7250   30.2890 C   0  0  0  0  0  0  0  0  0  0  0  0
   52.2930  158.4960   29.6570 C   0  0  0  0  0  0  0  0  0  0  0  0
   53.6260  158.5030   29.2890 O   0  0  0  0  0  0  0  0  0  0  0  0
   51.4550  157.4600   29.4630 C   0  0  0  0  0  0  0  0  0  0  0  0
   51.8670  156.1890   28.8240 C   0  0  0  0  0  0  0  0  0  0  0  0
   51.5340  154.9650   29.4350 C   0  0  0  0  0  0  0  0  0  0  0  0
   51.9280  153.7480   28.8710 C   0  0  0  0  0  0  0  0  0  0  0  0
   52.6600  153.7550   27.6950 C   0  0  0  0  0  0  0  0  0  0  0  0
   53.0440  152.5690   27.1420 O   0  0  0  0  0  0  0  0  0  0  0  0
   53.0030  154.9550   27.0790 C   0  0  0  0  0  0  0  0  0  0  0  0
   53.7280  154.8890   25.9200 O   0  0  0  0  0  0  0  0  0  0  0  0
   52.6190  156.1710   27.6370 C   0  0  0  0  0  0  0  0  0  0  0  0
   50.1100  157.4760   29.8150 O   0  0  0  0  0  0  0  0  0  0  0  0
   49.5920  158.5980   30.4100 C   0  0  0  0  0  0  0  0  0  0  0  0
   48.2410  158.5670   30.7570 C   0  0  0  0  0  0  0  0  0  0  0  0
   47.6620  159.6790   31.3620 C   0  0  0  0  0  0  0  0  0  0  0  0
   46.3400  159.6070   31.6840 O   0  0  0  0  0  0  0  0  0  0  0  0
   48.4100  160.8240   31.6260 C   0  0  0  0  0  0  0  0  0  0  0  0
   49.7580  160.8480   31.2780 C   0  0  0  0  0  0  0  0  0  0  0  0
   50.4450  161.9980   31.5600 O   0  0  0  0  0  0  0  0  0  0  0  0
   50.3490  159.7370   30.6700 C   0  0  0  0  0  0  0  0  0  0  0  0
   53.9340  159.1220   28.6560 H   0  0  0  0  0  0  0  0  0  0  0  0
   50.9550  154.9663   30.3703 H   0  0  0  0  0  0  0  0  0  0  0  0
   51.6602  152.7971   29.3548 H   0  0  0  0  0  0  0  0  0  0  0  0
   53.7110  152.0540   27.5510 H   0  0  0  0  0  0  0  0  0  0  0  0
   54.1310  154.0820   25.6650 H   0  0  0  0  0  0  0  0  0  0  0  0
   52.9034  157.1155   27.1501 H   0  0  0  0  0  0  0  0  0  0  0  0
   47.6375  157.6700   30.5539 H   0  0  0  0  0  0  0  0  0  0  0  0
   45.8540  158.8280   31.4950 H   0  0  0  0  0  0  0  0  0  0  0  0
   47.9420  161.6977   32.1031 H   0  0  0  0  0  0  0  0  0  0  0  0
   50.8500  162.4840   30.8680 H   0  0  0  0  0  0  0  0  0  0  0  0
  1  2  2  0
  2  3  1  0
  3  4  1  0
  3  5  2  0
  5  6  1  0
  6  7  2  0
  7  8  1  0
  8  9  2  0
  9 10  1  0
  9 11  1  0
 11 12  1  0
 11 13  2  0
  5 14  1  0
 14 15  1  0
 15 16  2  0
 16 17  1  0
 17 18  1  0
 17 19  2  0
 19 20  1  0
 20 21  1  0
 20 22  2  0
 22  2  1  0
 13  6  1  0
 22 15  1  0
  4 23  1  0
  7 24  1  0
  8 25  1  0
 10 26  1  0
 12 27  1  0
 13 28  1  0
 16 29  1  0
 18 30  1  0
 19 31  1  0
 21 32  1  0
M  END
>  <meeko>  (1) 
{"is_sidechain": [false], "free_energy": -9.393, "intermolecular_energy": -11.315, "internal_energy": -0.036}

$$$$
quercetin_out
     RDKit          3D

 32 34  0  0  0  0  0  0  0  0999 V2000
   52.2320  152.8920   28.8010 O   0  0  0  0  0  0  0  0  0  0  0  0
   52.3310  154.0630   28.4400 C   0  0  0  0  0  0  0  0  0  0  0  0
   51.7650  155.1540   29.2650 C   0  0  0  0  0  0  0  0  0  0  0  0
   51.1200  154.7890   30.4330 O   0  0  0  0  0  0  0  0  0  0  0  0
   51.8940  156.4210   28.8310 C   0  0  0  0  0  0  0  0  0  0  0  0
   51.3530  157.5910   29.5600 C   0  0  0  0  0  0  0  0  0  0  0  0
   50.0240  157.5650   30.0250 C   0  0  0  0  0  0  0  0  0  0  0  0
   49.4750  158.6620   30.6960 C   0  0  0  0  0  0  0  0  0  0  0  0
   50.2550  159.7880   30.9000 C   0  0  0  0  0  0  0  0  0  0  0  0
   49.7220  160.8590   31.5560 O   0  0  0  0  0  0  0  0  0  0  0  0
   51.5690  159.8340   30.4430 C   0  0  0  0  0  0  0  0  0  0  0  0
   52.2830  160.9780   30.6780 O   0  0  0  0  0  0  0  0  0  0  0  0
   52.1210  158.7480   29.7700 C   0  0  0  0  0  0  0  0  0  0  0  0
   52.5230  156.7710   27.6410 O   0  0  0  0  0  0  0  0  0  0  0  0
   53.0650  155.7830   26.8600 C   0  0  0  0  0  0  0  0  0  0  0  0
   53.6970  156.1800   25.6810 C   0  0  0  0  0  0  0  0  0  0  0  0
   54.2620  155.2180   24.8490 C   0  0  0  0  0  0  0  0  0  0  0  0
   54.8690  155.6480   23.7070 O   0  0  0  0  0  0  0  0  0  0  0  0
   54.2070  153.8650   25.1720 C   0  0  0  0  0  0  0  0  0  0  0  0
   53.5750  153.4750   26.3510 C   0  0  0  0  0  0  0  0  0  0  0  0
   53.5490  152.1330   26.6210 O   0  0  0  0  0  0  0  0  0  0  0  0
   53.0040  154.4330   27.1940 C   0  0  0  0  0  0  0  0  0  0  0  0
   50.6840  155.4370   30.9500 H   0  0  0  0  0  0  0  0  0  0  0  0
   49.4088  156.6686   29.8579 H   0  0  0  0  0  0  0  0  0  0  0  0
   48.4365  158.6310   31.0573 H   0  0  0  0  0  0  0  0  0  0  0  0
   49.2430  161.5090   31.0810 H   0  0  0  0  0  0  0  0  0  0  0  0
   53.0380  161.1730   30.1590 H   0  0  0  0  0  0  0  0  0  0  0  0
   53.1569  158.7958   29.4032 H   0  0  0  0  0  0  0  0  0  0  0  0
   53.7483  157.2452   25.4112 H   0  0  0  0  0  0  0  0  0  0  0  0
   55.7920  155.5330   23.5960 H   0  0  0  0  0  0  0  0  0  0  0  0
   54.6563  153.1140   24.5056 H   0  0  0  0  0  0  0  0  0  0  0  0
   52.8040  151.7550   27.0450 H   0  0  0  0  0  0  0  0  0  0  0  0
  1  2  2  0
  2  3  1  0
  3  4  1  0
  3  5  2  0
  5  6  1  0
  6  7  2  0
  7  8  1  0
  8  9  2  0
  9 10  1  0
  9 11  1  0
 11 12  1  0
 11 13  2  0
  5 14  1  0
 14 15  1  0
 15 16  2  0
 16 17  1  0
 17 18  1  0
 17 19  2  0
 19 20  1  0
 20 21  1  0
 20 22  2  0
 22  2  1  0
 13  6  1  0
 22 15  1  0
  4 23  1  0
  7 24  1  0
  8 25  1  0
 10 26  1  0
 12 27  1  0
 13 28  1  0
 16 29  1  0
 18 30  1  0
 19 31  1  0
 21 32  1  0
M  END
>  <meeko>  (2) 
{"is_sidechain": [false], "free_energy": -9.082, "intermolecular_energy": -10.954, "internal_energy": -0.022}

$$$$
quercetin_out
     RDKit          3D

 32 34  0  0  0  0  0  0  0  0999 V2000
   51.8880  151.5530   27.9440 O   0  0  0  0  0  0  0  0  0  0  0  0
   52.2330  152.6740   27.5740 C   0  0  0  0  0  0  0  0  0  0  0  0
   51.8730  153.8700   28.3680 C   0  0  0  0  0  0  0  0  0  0  0  0
   51.1330  153.6630   29.5180 O   0  0  0  0  0  0  0  0  0  0  0  0
   52.2680  155.0790   27.9250 C   0  0  0  0  0  0  0  0  0  0  0  0
   51.9510  156.3450   28.6230 C   0  0  0  0  0  0  0  0  0  0  0  0
   52.8960  157.3890   28.6300 C   0  0  0  0  0  0  0  0  0  0  0  0
   52.6380  158.5890   29.3000 C   0  0  0  0  0  0  0  0  0  0  0  0
   51.4340  158.7430   29.9690 C   0  0  0  0  0  0  0  0  0  0  0  0
   51.1800  159.9130   30.6220 O   0  0  0  0  0  0  0  0  0  0  0  0
   50.4900  157.7210   29.9770 C   0  0  0  0  0  0  0  0  0  0  0  0
   49.3230  157.9400   30.6570 O   0  0  0  0  0  0  0  0  0  0  0  0
   50.7420  156.5220   29.3170 C   0  0  0  0  0  0  0  0  0  0  0  0
   52.9910  155.2740   26.7530 O   0  0  0  0  0  0  0  0  0  0  0  0
   53.3460  154.1840   26.0010 C   0  0  0  0  0  0  0  0  0  0  0  0
   54.0810  154.4250   24.8400 C   0  0  0  0  0  0  0  0  0  0  0  0
   54.4660  153.3560   24.0370 C   0  0  0  0  0  0  0  0  0  0  0  0
   55.1820  153.6350   22.9110 O   0  0  0  0  0  0  0  0  0  0  0  0
   54.1290  152.0470   24.3730 C   0  0  0  0  0  0  0  0  0  0  0  0
   53.3960  151.8120   25.5350 C   0  0  0  0  0  0  0  0  0  0  0  0
   53.0920  150.5080   25.8170 O   0  0  0  0  0  0  0  0  0  0  0  0
   53.0040  152.8800   26.3470 C   0  0  0  0  0  0  0  0  0  0  0  0
   51.2710  152.8910   30.0320 H   0  0  0  0  0  0  0  0  0  0  0  0
   53.8513  157.2586   28.1005 H   0  0  0  0  0  0  0  0  0  0  0  0
   53.3810  159.4002   29.2961 H   0  0  0  0  0  0  0  0  0  0  0  0
   50.8830  160.6630   30.1440 H   0  0  0  0  0  0  0  0  0  0  0  0
   48.5690  157.4130   30.4750 H   0  0  0  0  0  0  0  0  0  0  0  0
   49.9959  155.7140   29.3385 H   0  0  0  0  0  0  0  0  0  0  0  0
   54.3544  155.4534   24.5613 H   0  0  0  0  0  0  0  0  0  0  0  0
   55.2890  152.9790   22.2510 H   0  0  0  0  0  0  0  0  0  0  0  0
   54.4373  151.2096   23.7297 H   0  0  0  0  0  0  0  0  0  0  0  0
   53.4830  150.0850   26.5570 H   0  0  0  0  0  0  0  0  0  0  0  0
  1  2  2  0
  2  3  1  0
  3  4  1  0
  3  5  2  0
  5  6  1  0
  6  7  2  0
  7  8  1  0
  8  9  2  0
  9 10  1  0
  9 11  1  0
 11 12  1  0
 11 13  2  0
  5 14  1  0
 14 15  1  0
 15 16  2  0
 16 17  1  0
 17 18  1  0
 17 19  2  0
 19 20  1  0
 20 21  1  0
 20 22  2  0
 22  2  1  0
 13  6  1  0
 22 15  1  0
  4 23  1  0
  7 24  1  0
  8 25  1  0
 10 26  1  0
 12 27  1  0
 13 28  1  0
 16 29  1  0
 18 30  1  0
 19 31  1  0
 21 32  1  0
M  END
>  <meeko>  (3) 
{"is_sidechain": [false], "free_energy": -8.647, "intermolecular_energy": -10.558, "internal_energy": 0.105}

$$$$
quercetin_out
     RDKit          3D

 32 34  0  0  0  0  0  0  0  0999 V2000
   48.0150  158.5760   30.8270 O   0  0  0  0  0  0  0  0  0  0  0  0
   49.2050  158.5060   30.5260 C   0  0  0  0  0  0  0  0  0  0  0  0
   49.7380  157.3040   29.8450 C   0  0  0  0  0  0  0  0  0  0  0  0
   48.8440  156.2810   29.5840 O   0  0  0  0  0  0  0  0  0  0  0  0
   51.0480  157.2670   29.5370 C   0  0  0  0  0  0  0  0  0  0  0  0
   51.6960  156.1130   28.8740 C   0  0  0  0  0  0  0  0  0  0  0  0
   51.5920  154.8320   29.4500 C   0  0  0  0  0  0  0  0  0  0  0  0
   52.2120  153.7260   28.8630 C   0  0  0  0  0  0  0  0  0  0  0  0
   52.9420  153.9000   27.6990 C   0  0  0  0  0  0  0  0  0  0  0  0
   53.5470  152.8210   27.1230 O   0  0  0  0  0  0  0  0  0  0  0  0
   53.0620  155.1590   27.1180 C   0  0  0  0  0  0  0  0  0  0  0  0
   53.7980  155.2600   25.9690 O   0  0  0  0  0  0  0  0  0  0  0  0
   52.4510  156.2660   27.6990 C   0  0  0  0  0  0  0  0  0  0  0  0
   51.9400  158.2930   29.8280 O   0  0  0  0  0  0  0  0  0  0  0  0
   51.4740  159.4230   30.4510 C   0  0  0  0  0  0  0  0  0  0  0  0
   52.4010  160.4310   30.7140 C   0  0  0  0  0  0  0  0  0  0  0  0
   51.9830  161.5990   31.3460 C   0  0  0  0  0  0  0  0  0  0  0  0
   52.9210  162.5590   31.5850 O   0  0  0  0  0  0  0  0  0  0  0  0
   50.6540  161.7770   31.7220 C   0  0  0  0  0  0  0  0  0  0  0  0
   49.7330  160.7660   31.4560 C   0  0  0  0  0  0  0  0  0  0  0  0
   48.4410  160.9930   31.8460 O   0  0  0  0  0  0  0  0  0  0  0  0
   50.1430  159.5900   30.8220 C   0  0  0  0  0  0  0  0  0  0  0  0
   48.6040  156.0830   28.7000 H   0  0  0  0  0  0  0  0  0  0  0  0
   51.0137  154.7002   30.3764 H   0  0  0  0  0  0  0  0  0  0  0  0
   52.1214  152.7294   29.3197 H   0  0  0  0  0  0  0  0  0  0  0  0
   53.2340  151.9570   27.3020 H   0  0  0  0  0  0  0  0  0  0  0  0
   54.4670  154.6300   25.7840 H   0  0  0  0  0  0  0  0  0  0  0  0
   52.5589  157.2594   27.2391 H   0  0  0  0  0  0  0  0  0  0  0  0
   53.4546  160.3043   30.4243 H   0  0  0  0  0  0  0  0  0  0  0  0
   53.6730  162.3580   32.1070 H   0  0  0  0  0  0  0  0  0  0  0  0
   50.3356  162.7034   32.2223 H   0  0  0  0  0  0  0  0  0  0  0  0
   47.9190  161.6260   31.3940 H   0  0  0  0  0  0  0  0  0  0  0  0
  1  2  2  0
  2  3  1  0
  3  4  1  0
  3  5  2  0
  5  6  1  0
  6  7  2  0
  7  8  1  0
  8  9  2  0
  9 10  1  0
  9 11  1  0
 11 12  1  0
 11 13  2  0
  5 14  1  0
 14 15  1  0
 15 16  2  0
 16 17  1  0
 17 18  1  0
 17 19  2  0
 19 20  1  0
 20 21  1  0
 20 22  2  0
 22  2  1  0
 13  6  1  0
 22 15  1  0
  4 23  1  0
  7 24  1  0
  8 25  1  0
 10 26  1  0
 12 27  1  0
 13 28  1  0
 16 29  1  0
 18 30  1  0
 19 31  1  0
 21 32  1  0
M  END
>  <meeko>  (4) 
{"is_sidechain": [false], "free_energy": -8.644, "intermolecular_energy": -10.34, "internal_energy": -0.109}

$$$$
quercetin_out
     RDKit          3D

 32 34  0  0  0  0  0  0  0  0999 V2000
   54.7000  155.0320   24.6230 O   0  0  0  0  0  0  0  0  0  0  0  0
   53.8990  154.7240   25.5030 C   0  0  0  0  0  0  0  0  0  0  0  0
   53.3450  155.7570   26.4080 C   0  0  0  0  0  0  0  0  0  0  0  0
   53.7810  157.0560   26.2210 O   0  0  0  0  0  0  0  0  0  0  0  0
   52.4730  155.3760   27.3600 C   0  0  0  0  0  0  0  0  0  0  0  0
   51.8690  156.3140   28.3330 C   0  0  0  0  0  0  0  0  0  0  0  0
   50.6250  156.0050   28.9160 C   0  0  0  0  0  0  0  0  0  0  0  0
   50.0160  156.8810   29.8200 C   0  0  0  0  0  0  0  0  0  0  0  0
   50.6510  158.0700   30.1390 C   0  0  0  0  0  0  0  0  0  0  0  0
   50.0590  158.9250   31.0230 O   0  0  0  0  0  0  0  0  0  0  0  0
   51.8780  158.3960   29.5700 C   0  0  0  0  0  0  0  0  0  0  0  0
   52.4490  159.5860   29.9290 O   0  0  0  0  0  0  0  0  0  0  0  0
   52.4880  157.5310   28.6650 C   0  0  0  0  0  0  0  0  0  0  0  0
   52.0630  154.0610   27.5520 O   0  0  0  0  0  0  0  0  0  0  0  0
   52.5530  153.0840   26.7240 C   0  0  0  0  0  0  0  0  0  0  0  0
   52.1060  151.7810   26.9450 C   0  0  0  0  0  0  0  0  0  0  0  0
   52.5720  150.7500   26.1350 C   0  0  0  0  0  0  0  0  0  0  0  0
   52.1110  149.4920   26.3850 O   0  0  0  0  0  0  0  0  0  0  0  0
   53.4780  150.9960   25.1070 C   0  0  0  0  0  0  0  0  0  0  0  0
   53.9200  152.3000   24.8910 C   0  0  0  0  0  0  0  0  0  0  0  0
   54.8100  152.4860   23.8670 O   0  0  0  0  0  0  0  0  0  0  0  0
   53.4580  153.3430   25.6990 C   0  0  0  0  0  0  0  0  0  0  0  0
   54.5850  157.3410   26.6090 H   0  0  0  0  0  0  0  0  0  0  0  0
   50.1248  155.0603   28.6564 H   0  0  0  0  0  0  0  0  0  0  0  0
   49.0453  156.6291   30.2719 H   0  0  0  0  0  0  0  0  0  0  0  0
   49.5340  159.6350   30.7090 H   0  0  0  0  0  0  0  0  0  0  0  0
   52.6840  159.7420   30.8230 H   0  0  0  0  0  0  0  0  0  0  0  0
   53.4530  157.8001   28.2107 H   0  0  0  0  0  0  0  0  0  0  0  0
   51.3905  151.5703   27.7535 H   0  0  0  0  0  0  0  0  0  0  0  0
   52.5960  148.7480   26.0860 H   0  0  0  0  0  0  0  0  0  0  0  0
   53.8400  150.1725   24.4739 H   0  0  0  0  0  0  0  0  0  0  0  0
   54.5070  152.7830   23.0310 H   0  0  0  0  0  0  0  0  0  0  0  0
  1  2  2  0
  2  3  1  0
  3  4  1  0
  3  5  2  0
  5  6  1  0
  6  7  2  0
  7  8  1  0
  8  9  2  0
  9 10  1  0
  9 11  1  0
 11 12  1  0
 11 13  2  0
  5 14  1  0
 14 15  1  0
 15 16  2  0
 16 17  1  0
 17 18  1  0
 17 19  2  0
 19 20  1  0
 20 21  1  0
 20 22  2  0
 22  2  1  0
 13  6  1  0
 22 15  1  0
  4 23  1  0
  7 24  1  0
  8 25  1  0
 10 26  1  0
 12 27  1  0
 13 28  1  0
 16 29  1  0
 18 30  1  0
 19 31  1  0
 21 32  1  0
M  END
>  <meeko>  (5) 
{"is_sidechain": [false], "free_energy": -8.538, "intermolecular_energy": -10.531, "internal_energy": 0.21}

$$$$
quercetin_out
     RDKit          3D

 32 34  0  0  0  0  0  0  0  0999 V2000
   48.1470  158.5150   31.0840 O   0  0  0  0  0  0  0  0  0  0  0  0
   49.3110  158.5210   30.6870 C   0  0  0  0  0  0  0  0  0  0  0  0
   49.8430  157.3810   29.9070 C   0  0  0  0  0  0  0  0  0  0  0  0
   48.9820  156.3260   29.6680 O   0  0  0  0  0  0  0  0  0  0  0  0
   51.1240  157.4270   29.4940 C   0  0  0  0  0  0  0  0  0  0  0  0
   51.7710  156.3390   28.7260 C   0  0  0  0  0  0  0  0  0  0  0  0
   52.5750  156.6570   27.6150 C   0  0  0  0  0  0  0  0  0  0  0  0
   53.1800  155.6530   26.8540 C   0  0  0  0  0  0  0  0  0  0  0  0
   52.9780  154.3270   27.2020 C   0  0  0  0  0  0  0  0  0  0  0  0
   53.5700  153.3460   26.4610 O   0  0  0  0  0  0  0  0  0  0  0  0
   52.1830  153.9930   28.2930 C   0  0  0  0  0  0  0  0  0  0  0  0
   52.0250  152.6650   28.5810 O   0  0  0  0  0  0  0  0  0  0  0  0
   51.5730  154.9870   29.0530 C   0  0  0  0  0  0  0  0  0  0  0  0
   51.9860  158.4840   29.7640 O   0  0  0  0  0  0  0  0  0  0  0  0
   51.5190  159.5580   30.4770 C   0  0  0  0  0  0  0  0  0  0  0  0
   52.4140  160.6000   30.7150 C   0  0  0  0  0  0  0  0  0  0  0  0
   51.9940  161.7150   31.4360 C   0  0  0  0  0  0  0  0  0  0  0  0
   52.9000  162.7110   31.6470 O   0  0  0  0  0  0  0  0  0  0  0  0
   50.6930  161.8060   31.9250 C   0  0  0  0  0  0  0  0  0  0  0  0
   49.8030  160.7620   31.6830 C   0  0  0  0  0  0  0  0  0  0  0  0
   48.5380  160.9030   32.1850 O   0  0  0  0  0  0  0  0  0  0  0  0
   50.2160  159.6380   30.9600 C   0  0  0  0  0  0  0  0  0  0  0  0
   48.7320  155.7560   30.3690 H   0  0  0  0  0  0  0  0  0  0  0  0
   52.7293  157.7113   27.3418 H   0  0  0  0  0  0  0  0  0  0  0  0
   53.8088  155.9122   25.9894 H   0  0  0  0  0  0  0  0  0  0  0  0
   54.4680  153.1240   26.6080 H   0  0  0  0  0  0  0  0  0  0  0  0
   52.4840  152.2850   29.3050 H   0  0  0  0  0  0  0  0  0  0  0  0
   50.9370  154.7144   29.9081 H   0  0  0  0  0  0  0  0  0  0  0  0
   53.4450  160.5419   30.3359 H   0  0  0  0  0  0  0  0  0  0  0  0
   52.8950  163.1840   32.4550 H   0  0  0  0  0  0  0  0  0  0  0  0
   50.3725  162.6906   32.4948 H   0  0  0  0  0  0  0  0  0  0  0  0
   48.0110  160.1450   32.3490 H   0  0  0  0  0  0  0  0  0  0  0  0
  1  2  2  0
  2  3  1  0
  3  4  1  0
  3  5  2  0
  5  6  1  0
  6  7  2  0
  7  8  1  0
  8  9  2  0
  9 10  1  0
  9 11  1  0
 11 12  1  0
 11 13  2  0
  5 14  1  0
 14 15  1  0
 15 16  2  0
 16 17  1  0
 17 18  1  0
 17 19  2  0
 19 20  1  0
 20 21  1  0
 20 22  2  0
 22  2  1  0
 13  6  1  0
 22 15  1  0
  4 23  1  0
  7 24  1  0
  8 25  1  0
 10 26  1  0
 12 27  1  0
 13 28  1  0
 16 29  1  0
 18 30  1  0
 19 31  1  0
 21 32  1  0
M  END
>  <meeko>  (6) 
{"is_sidechain": [false], "free_energy": -8.422, "intermolecular_energy": -10.19, "internal_energy": 0.009}

$$$$
quercetin_out
     RDKit          3D

 32 34  0  0  0  0  0  0  0  0999 V2000
   54.7350  154.8590   24.6320 O   0  0  0  0  0  0  0  0  0  0  0  0
   53.9230  154.6220   25.5250 C   0  0  0  0  0  0  0  0  0  0  0  0
   53.4130  155.7140   26.3840 C   0  0  0  0  0  0  0  0  0  0  0  0
   53.8990  156.9860   26.1410 O   0  0  0  0  0  0  0  0  0  0  0  0
   52.5280  155.4100   27.3520 C   0  0  0  0  0  0  0  0  0  0  0  0
   51.9630  156.4130   28.2840 C   0  0  0  0  0  0  0  0  0  0  0  0
   52.6920  157.5850   28.5680 C   0  0  0  0  0  0  0  0  0  0  0  0
   52.1980  158.5400   29.4610 C   0  0  0  0  0  0  0  0  0  0  0  0
   50.9760  158.3230   30.0750 C   0  0  0  0  0  0  0  0  0  0  0  0
   50.4920  159.2550   30.9450 O   0  0  0  0  0  0  0  0  0  0  0  0
   50.2440  157.1690   29.8110 C   0  0  0  0  0  0  0  0  0  0  0  0
   49.0440  157.0180   30.4520 O   0  0  0  0  0  0  0  0  0  0  0  0
   50.7300  156.2110   28.9270 C   0  0  0  0  0  0  0  0  0  0  0  0
   52.0660  154.1230   27.6010 O   0  0  0  0  0  0  0  0  0  0  0  0
   52.5150  153.0920   26.8160 C   0  0  0  0  0  0  0  0  0  0  0  0
   52.0170  151.8190   27.0940 C   0  0  0  0  0  0  0  0  0  0  0  0
   52.4400  150.7350   26.3290 C   0  0  0  0  0  0  0  0  0  0  0  0
   51.9300  149.5080   26.6340 O   0  0  0  0  0  0  0  0  0  0  0  0
   53.3530  150.9000   25.2910 C   0  0  0  0  0  0  0  0  0  0  0  0
   53.8460  152.1750   25.0180 C   0  0  0  0  0  0  0  0  0  0  0  0
   54.7410  152.2800   23.9880 O   0  0  0  0  0  0  0  0  0  0  0  0
   53.4270  153.2690   25.7810 C   0  0  0  0  0  0  0  0  0  0  0  0
   54.7390  157.0970   25.7400 H   0  0  0  0  0  0  0  0  0  0  0  0
   53.6638  157.7507   28.0799 H   0  0  0  0  0  0  0  0  0  0  0  0
   52.7732  159.4532   29.6735 H   0  0  0  0  0  0  0  0  0  0  0  0
   50.0970  158.9850   31.7510 H   0  0  0  0  0  0  0  0  0  0  0  0
   49.0050  156.5620   31.2700 H   0  0  0  0  0  0  0  0  0  0  0  0
   50.1500  155.2969   28.7317 H   0  0  0  0  0  0  0  0  0  0  0  0
   51.2956  151.6725   27.9114 H   0  0  0  0  0  0  0  0  0  0  0  0
   51.7270  149.2940   27.5240 H   0  0  0  0  0  0  0  0  0  0  0  0
   53.6809  150.0360   24.6944 H   0  0  0  0  0  0  0  0  0  0  0  0
   55.6370  152.0380   24.1190 H   0  0  0  0  0  0  0  0  0  0  0  0
  1  2  2  0
  2  3  1  0
  3  4  1  0
  3  5  2  0
  5  6  1  0
  6  7  2  0
  7  8  1  0
  8  9  2  0
  9 10  1  0
  9 11  1  0
 11 12  1  0
 11 13  2  0
  5 14  1  0
 14 15  1  0
 15 16  2  0
 16 17  1  0
 17 18  1  0
 17 19  2  0
 19 20  1  0
 20 21  1  0
 20 22  2  0
 22  2  1  0
 13  6  1  0
 22 15  1  0
  4 23  1  0
  7 24  1  0
  8 25  1  0
 10 26  1  0
 12 27  1  0
 13 28  1  0
 16 29  1  0
 18 30  1  0
 19 31  1  0
 21 32  1  0
M  END
>  <meeko>  (7) 
{"is_sidechain": [false], "free_energy": -7.535, "intermolecular_energy": -9.359, "internal_energy": 0.246}

$$$$
quercetin_out
     RDKit          3D

 32 34  0  0  0  0  0  0  0  0999 V2000
   53.0710  159.9290   29.8730 O   0  0  0  0  0  0  0  0  0  0  0  0
   52.2420  159.0280   29.7620 C   0  0  0  0  0  0  0  0  0  0  0  0
   52.5700  157.7950   29.0110 C   0  0  0  0  0  0  0  0  0  0  0  0
   53.8280  157.7210   28.4420 O   0  0  0  0  0  0  0  0  0  0  0  0
   51.6310  156.8350   28.9100 C   0  0  0  0  0  0  0  0  0  0  0  0
   51.8370  155.5700   28.1690 C   0  0  0  0  0  0  0  0  0  0  0  0
   52.0760  155.6080   26.7820 C   0  0  0  0  0  0  0  0  0  0  0  0
   52.2510  154.4300   26.0490 C   0  0  0  0  0  0  0  0  0  0  0  0
   52.1820  153.2110   26.7040 C   0  0  0  0  0  0  0  0  0  0  0  0
   52.3540  152.0610   25.9910 O   0  0  0  0  0  0  0  0  0  0  0  0
   51.9420  153.1530   28.0730 C   0  0  0  0  0  0  0  0  0  0  0  0
   51.8870  151.9160   28.6560 O   0  0  0  0  0  0  0  0  0  0  0  0
   51.7620  154.3210   28.8090 C   0  0  0  0  0  0  0  0  0  0  0  0
   50.3600  156.9340   29.4660 O   0  0  0  0  0  0  0  0  0  0  0  0
   50.0310  158.0610   30.1740 C   0  0  0  0  0  0  0  0  0  0  0  0
   48.7500  158.1140   30.7240 C   0  0  0  0  0  0  0  0  0  0  0  0
   48.3610  159.2350   31.4510 C   0  0  0  0  0  0  0  0  0  0  0  0
   47.1010  159.2470   31.9700 O   0  0  0  0  0  0  0  0  0  0  0  0
   49.2300  160.3070   31.6390 C   0  0  0  0  0  0  0  0  0  0  0  0
   50.5080  160.2480   31.0880 C   0  0  0  0  0  0  0  0  0  0  0  0
   51.3210  161.3280   31.3030 O   0  0  0  0  0  0  0  0  0  0  0  0
   50.9080  159.1260   30.3560 C   0  0  0  0  0  0  0  0  0  0  0  0
   54.1030  156.9340   28.0130 H   0  0  0  0  0  0  0  0  0  0  0  0
   52.1258  156.5788   26.2672 H   0  0  0  0  0  0  0  0  0  0  0  0
   52.4410  154.4706   24.9663 H   0  0  0  0  0  0  0  0  0  0  0  0
   52.4320  151.2400   26.4350 H   0  0  0  0  0  0  0  0  0  0  0  0
   51.0770  151.4450   28.6790 H   0  0  0  0  0  0  0  0  0  0  0  0
   51.5615  154.2664   29.8892 H   0  0  0  0  0  0  0  0  0  0  0  0
   48.0521  157.2753   30.5839 H   0  0  0  0  0  0  0  0  0  0  0  0
   46.6950  158.4430   32.2320 H   0  0  0  0  0  0  0  0  0  0  0  0
   48.9114  161.1884   32.2149 H   0  0  0  0  0  0  0  0  0  0  0  0
   51.5540  161.8890   30.5890 H   0  0  0  0  0  0  0  0  0  0  0  0
  1  2  2  0
  2  3  1  0
  3  4  1  0
  3  5  2  0
  5  6  1  0
  6  7  2  0
  7  8  1  0
  8  9  2  0
  9 10  1  0
  9 11  1  0
 11 12  1  0
 11 13  2  0
  5 14  1  0
 14 15  1  0
 15 16  2  0
 16 17  1  0
 17 18  1  0
 17 19  2  0
 19 20  1  0
 20 21  1  0
 20 22  2  0
 22  2  1  0
 13  6  1  0
 22 15  1  0
  4 23  1  0
  7 24  1  0
  8 25  1  0
 10 26  1  0
 12 27  1  0
 13 28  1  0
 16 29  1  0
 18 30  1  0
 19 31  1  0
 21 32  1  0
M  END
>  <meeko>  (8) 
{"is_sidechain": [false], "free_energy": -7.461, "intermolecular_energy": -8.841, "internal_energy": -0.184}

$$$$
