SAG_pdb_out
     RDKit          3D

 39 40  0  0  0  0  0  0  0  0999 V2000
   54.1840  153.4460   23.2530 C   0  0  0  0  0  0  0  0  0  0  0  0
   53.8250  152.8560   24.6100 C   0  0  2  0  0  0  0  0  0  0  0  0
   53.7720  153.9680   25.5940 N   0  0  0  0  0  0  0  0  0  0  0  0
   52.6290  154.0740   26.1860 C   0  0  0  0  0  0  0  0  0  0  0  0
   52.3700  155.1200   27.1940 C   0  0  0  0  0  0  0  0  0  0  0  0
   52.9660  156.3800   27.0910 C   0  0  0  0  0  0  0  0  0  0  0  0
   52.7090  157.3600   28.0580 C   0  0  0  0  0  0  0  0  0  0  0  0
   51.8550  157.0800   29.1270 C   0  0  0  0  0  0  0  0  0  0  0  0
   51.5190  157.9400   30.1340 O   0  0  0  0  0  0  0  0  0  0  0  0
   51.2540  159.2940   29.7760 C   0  0  0  0  0  0  0  0  0  0  0  0
   50.0040  159.7280   30.4990 C   0  0  0  0  0  0  0  0  0  0  0  0
   49.0110  158.7930   30.8310 C   0  0  0  0  0  0  0  0  0  0  0  0
   47.8590  159.1900   31.5180 C   0  0  0  0  0  0  0  0  0  0  0  0
   47.6950  160.5240   31.8860 C   0  0  0  0  0  0  0  0  0  0  0  0
   48.6840  161.4480   31.5710 C   0  0  0  0  0  0  0  0  0  0  0  0
   48.5300  162.7280   31.9330 F   0  0  0  0  0  0  0  0  0  0  0  0
   49.8340  161.0650   30.8870 C   0  0  0  0  0  0  0  0  0  0  0  0
   51.2640  155.8170   29.2220 C   0  0  0  0  0  0  0  0  0  0  0  0
   51.5160  154.8350   28.2600 C   0  0  0  0  0  0  0  0  0  0  0  0
   54.9010  151.8560   25.0520 C   0  0  0  0  0  0  0  0  0  0  0  0
   56.0270  152.4200   25.5840 N   0  0  0  0  0  0  0  0  0  0  0  0
   54.7920  150.6410   24.9250 O   0  0  0  0  0  0  0  0  0  0  0  0
   54.7509  154.3777   23.3966 H   0  0  0  0  0  0  0  0  0  0  0  0
   54.7975  152.7264   22.6910 H   0  0  0  0  0  0  0  0  0  0  0  0
   53.2630  153.6601   22.6910 H   0  0  0  0  0  0  0  0  0  0  0  0
   52.8575  152.3366   24.5465 H   0  0  0  0  0  0  0  0  0  0  0  0
   51.8270  153.3654   25.9319 H   0  0  0  0  0  0  0  0  0  0  0  0
   53.6380  156.6023   26.2490 H   0  0  0  0  0  0  0  0  0  0  0  0
   53.1800  158.3506   27.9755 H   0  0  0  0  0  0  0  0  0  0  0  0
   52.0990  159.9318   30.0745 H   0  0  0  0  0  0  0  0  0  0  0  0
   51.1182  159.3833   28.6881 H   0  0  0  0  0  0  0  0  0  0  0  0
   49.1400  157.7378   30.5482 H   0  0  0  0  0  0  0  0  0  0  0  0
   47.0839  158.4504   31.7673 H   0  0  0  0  0  0  0  0  0  0  0  0
   46.7891  160.8434   32.4220 H   0  0  0  0  0  0  0  0  0  0  0  0
   50.6084  161.8098   30.6511 H   0  0  0  0  0  0  0  0  0  0  0  0
   50.5925  155.5932   30.0640 H   0  0  0  0  0  0  0  0  0  0  0  0
   51.0445  153.8446   28.3426 H   0  0  0  0  0  0  0  0  0  0  0  0
   56.0910  153.3980   25.6770 H   0  0  0  0  0  0  0  0  0  0  0  0
   56.7740  151.8480   25.8750 H   0  0  0  0  0  0  0  0  0  0  0  0
  1  2  1  0
  2  3  1  0
  3  4  2  0
  4  5  1  0
  5  6  2  0
  6  7  1  0
  7  8  2  0
  8  9  1  0
  9 10  1  0
 10 11  1  0
 11 12  2  0
 12 13  1  0
 13 14  2  0
 14 15  1  0
 15 16  1  0
 15 17  2  0
  8 18  1  0
 18 19  2  0
  2 20  1  0
 20 21  1  0
 20 22  2  0
 19  5  1  0
 17 11  1  0
  1 23  1  0
  1 24  1  0
  1 25  1  0
  2 26  1  6
  4 27  1  0
  6 28  1  0
  7 29  1  0
 10 30  1  0
 10 31  1  0
 12 32  1  0
 13 33  1  0
 14 34  1  0
 17 35  1  0
 18 36  1  0
 19 37  1  0
 21 38  1  0
 21 39  1  0
M  END
>  <meeko>  (1) 
{"is_sidechain": [false], "free_energy": -10.159, "intermolecular_energy": -13.723, "internal_energy": -0.61}

$$$$
SAG_pdb_out
     RDKit          3D

 39 40  0  0  0  0  0  0  0  0999 V2000
   47.4730  159.9920   31.7550 C   0  0  0  0  0  0  0  0  0  0  0  0
   48.6110  160.9630   31.4760 C   0  0  2  0  0  0  0  0  0  0  0  0
   49.6680  160.2310   30.7330 N   0  0  0  0  0  0  0  0  0  0  0  0
   49.5050  158.9490   30.7390 C   0  0  0  0  0  0  0  0  0  0  0  0
   50.4510  158.0420   30.0620 C   0  0  0  0  0  0  0  0  0  0  0  0
   51.6800  158.5100   29.5880 C   0  0  0  0  0  0  0  0  0  0  0  0
   52.5650  157.6340   28.9470 C   0  0  0  0  0  0  0  0  0  0  0  0
   52.2220  156.2910   28.7810 C   0  0  0  0  0  0  0  0  0  0  0  0
   52.9880  155.3330   28.1790 O   0  0  0  0  0  0  0  0  0  0  0  0
   52.3100  154.3540   27.3940 C   0  0  0  0  0  0  0  0  0  0  0  0
   53.1090  154.1380   26.1330 C   0  0  0  0  0  0  0  0  0  0  0  0
   53.8430  155.1910   25.5640 C   0  0  0  0  0  0  0  0  0  0  0  0
   54.5990  154.9890   24.4050 C   0  0  0  0  0  0  0  0  0  0  0  0
   54.6320  153.7290   23.8100 C   0  0  0  0  0  0  0  0  0  0  0  0
   53.9180  152.6830   24.3800 C   0  0  0  0  0  0  0  0  0  0  0  0
   53.9590  151.4710   23.8120 F   0  0  0  0  0  0  0  0  0  0  0  0
   53.1620  152.8720   25.5330 C   0  0  0  0  0  0  0  0  0  0  0  0
   50.9910  155.8320   29.2600 C   0  0  0  0  0  0  0  0  0  0  0  0
   50.1030  156.7010   29.9000 C   0  0  0  0  0  0  0  0  0  0  0  0
   49.2000  161.4790   32.7940 C   0  0  0  0  0  0  0  0  0  0  0  0
   50.5050  161.8830   32.7230 N   0  0  0  0  0  0  0  0  0  0  0  0
   48.5780  161.5120   33.8510 O   0  0  0  0  0  0  0  0  0  0  0  0
   47.3434  159.8815   32.8417 H   0  0  0  0  0  0  0  0  0  0  0  0
   46.5435  160.3796   31.3125 H   0  0  0  0  0  0  0  0  0  0  0  0
   47.7094  159.0131   31.3125 H   0  0  0  0  0  0  0  0  0  0  0  0
   48.2367  161.8171   30.8925 H   0  0  0  0  0  0  0  0  0  0  0  0
   48.6371  158.5225   31.2633 H   0  0  0  0  0  0  0  0  0  0  0  0
   51.9524  159.5677   29.7186 H   0  0  0  0  0  0  0  0  0  0  0  0
   53.5312  158.0045   28.5740 H   0  0  0  0  0  0  0  0  0  0  0  0
   52.2351  153.4110   27.9553 H   0  0  0  0  0  0  0  0  0  0  0  0
   51.2930  154.6949   27.1501 H   0  0  0  0  0  0  0  0  0  0  0  0
   53.8232  156.1850   26.0347 H   0  0  0  0  0  0  0  0  0  0  0  0
   55.1660  155.8222   23.9642 H   0  0  0  0  0  0  0  0  0  0  0  0
   55.2197  153.5642   22.8949 H   0  0  0  0  0  0  0  0  0  0  0  0
   52.6073  152.0300   25.9726 H   0  0  0  0  0  0  0  0  0  0  0  0
   50.7183  154.7741   29.1315 H   0  0  0  0  0  0  0  0  0  0  0  0
   49.1369  156.3302   30.2732 H   0  0  0  0  0  0  0  0  0  0  0  0
   50.9840  161.8480   31.8630 H   0  0  0  0  0  0  0  0  0  0  0  0
   50.9640  162.2100   33.5300 H   0  0  0  0  0  0  0  0  0  0  0  0
  1  2  1  0
  2  3  1  0
  3  4  2  0
  4  5  1  0
  5  6  2  0
  6  7  1  0
  7  8  2  0
  8  9  1  0
  9 10  1  0
 10 11  1  0
 11 12  2  0
 12 13  1  0
 13 14  2  0
 14 15  1  0
 15 16  1  0
 15 17  2  0
  8 18  1  0
 18 19  2  0
  2 20  1  0
 20 21  1  0
 20 22  2  0
 19  5  1  0
 17 11  1  0
  1 23  1  0
  1 24  1  0
  1 25  1  0
  2 26  1  6
  4 27  1  0
  6 28  1  0
  7 29  1  0
 10 30  1  0
 10 31  1  0
 12 32  1  0
 13 33  1  0
 14 34  1  0
 17 35  1  0
 18 36  1  0
 19 37  1  0
 21 38  1  0
 21 39  1  0
M  END
>  <meeko>  (2) 
{"is_sidechain": [false], "free_energy": -10.069, "intermolecular_energy": -13.528, "internal_energy": -0.683}

$$$$
SAG_pdb_out
     RDKit          3D

 39 40  0  0  0  0  0  0  0  0999 V2000
   54.2460  153.6200   23.2740 C   0  0  0  0  0  0  0  0  0  0  0  0
   53.8000  153.0080   24.5950 C   0  0  2  0  0  0  0  0  0  0  0  0
   53.7050  154.1010   25.5970 N   0  0  0  0  0  0  0  0  0  0  0  0
   52.5980  154.0920   26.2620 C   0  0  0  0  0  0  0  0  0  0  0  0
   52.3070  155.0990   27.3010 C   0  0  0  0  0  0  0  0  0  0  0  0
   51.4630  154.8010   28.3730 C   0  0  0  0  0  0  0  0  0  0  0  0
   51.1980  155.7710   29.3490 C   0  0  0  0  0  0  0  0  0  0  0  0
   51.7790  157.0370   29.2530 C   0  0  0  0  0  0  0  0  0  0  0  0
   51.6080  158.0700   30.1300 O   0  0  0  0  0  0  0  0  0  0  0  0
   50.9720  159.2470   29.6370 C   0  0  0  0  0  0  0  0  0  0  0  0
   50.0790  159.7820   30.7270 C   0  0  0  0  0  0  0  0  0  0  0  0
   50.5960  160.6290   31.7210 C   0  0  0  0  0  0  0  0  0  0  0  0
   49.7660  161.1420   32.7230 C   0  0  0  0  0  0  0  0  0  0  0  0
   48.4110  160.8180   32.7350 C   0  0  0  0  0  0  0  0  0  0  0  0
   47.8950  159.9920   31.7440 C   0  0  0  0  0  0  0  0  0  0  0  0
   46.5900  159.6890   31.7510 F   0  0  0  0  0  0  0  0  0  0  0  0
   48.7110  159.4760   30.7410 C   0  0  0  0  0  0  0  0  0  0  0  0
   52.6230  157.3250   28.1760 C   0  0  0  0  0  0  0  0  0  0  0  0
   52.8910  156.3620   27.1990 C   0  0  0  0  0  0  0  0  0  0  0  0
   54.8320  151.9820   25.0780 C   0  0  0  0  0  0  0  0  0  0  0  0
   55.9950  152.5180   25.5590 N   0  0  0  0  0  0  0  0  0  0  0  0
   54.6620  150.7690   25.0220 O   0  0  0  0  0  0  0  0  0  0  0  0
   54.8833  154.4945   23.4717 H   0  0  0  0  0  0  0  0  0  0  0  0
   54.8143  152.8748   22.6980 H   0  0  0  0  0  0  0  0  0  0  0  0
   53.3626  153.9328   22.6980 H   0  0  0  0  0  0  0  0  0  0  0  0
   52.8307  152.5047   24.4641 H   0  0  0  0  0  0  0  0  0  0  0  0
   51.8517  153.3127   26.0483 H   0  0  0  0  0  0  0  0  0  0  0  0
   51.0057  153.8036   28.4513 H   0  0  0  0  0  0  0  0  0  0  0  0
   50.5316  155.5348   30.1917 H   0  0  0  0  0  0  0  0  0  0  0  0
   51.7303  159.9987   29.3724 H   0  0  0  0  0  0  0  0  0  0  0  0
   50.3825  159.0159   28.7375 H   0  0  0  0  0  0  0  0  0  0  0  0
   51.6642  160.8914   31.7113 H   0  0  0  0  0  0  0  0  0  0  0  0
   50.1822  161.8000   33.5001 H   0  0  0  0  0  0  0  0  0  0  0  0
   47.7541  161.2134   33.5237 H   0  0  0  0  0  0  0  0  0  0  0  0
   48.2831  158.8293   29.9608 H   0  0  0  0  0  0  0  0  0  0  0  0
   53.0817  158.3216   28.0967 H   0  0  0  0  0  0  0  0  0  0  0  0
   53.5572  156.5981   26.3562 H   0  0  0  0  0  0  0  0  0  0  0  0
   56.1080  153.4950   25.5950 H   0  0  0  0  0  0  0  0  0  0  0  0
   56.7170  151.9260   25.8720 H   0  0  0  0  0  0  0  0  0  0  0  0
  1  2  1  0
  2  3  1  0
  3  4  2  0
  4  5  1  0
  5  6  2  0
  6  7  1  0
  7  8  2  0
  8  9  1  0
  9 10  1  0
 10 11  1  0
 11 12  2  0
 12 13  1  0
 13 14  2  0
 14 15  1  0
 15 16  1  0
 15 17  2  0
  8 18  1  0
 18 19  2  0
  2 20  1  0
 20 21  1  0
 20 22  2  0
 19  5  1  0
 17 11  1  0
  1 23  1  0
  1 24  1  0
  1 25  1  0
  2 26  1  6
  4 27  1  0
  6 28  1  0
  7 29  1  0
 10 30  1  0
 10 31  1  0
 12 32  1  0
 13 33  1  0
 14 34  1  0
 17 35  1  0
 18 36  1  0
 19 37  1  0
 21 38  1  0
 21 39  1  0
M  END
>  <meeko>  (3) 
{"is_sidechain": [false], "free_energy": -9.968, "intermolecular_energy": -13.518, "internal_energy": -0.557}

$$$$
SAG_pdb_out
     RDKit          3D

 39 40  0  0  0  0  0  0  0  0999 V2000
   47.5640  160.1850   31.6580 C   0  0  0  0  0  0  0  0  0  0  0  0
   48.8350  160.9920   31.4300 C   0  0  2  0  0  0  0  0  0  0  0  0
   49.7340  160.1940   30.5570 N   0  0  0  0  0  0  0  0  0  0  0  0
   49.7070  158.9290   30.8120 C   0  0  0  0  0  0  0  0  0  0  0  0
   50.5340  157.9660   30.0590 C   0  0  0  0  0  0  0  0  0  0  0  0
   50.1170  156.6440   29.8850 C   0  0  0  0  0  0  0  0  0  0  0  0
   50.9170  155.7450   29.1680 C   0  0  0  0  0  0  0  0  0  0  0  0
   52.1310  156.1680   28.6240 C   0  0  0  0  0  0  0  0  0  0  0  0
   53.0030  155.4000   27.9060 O   0  0  0  0  0  0  0  0  0  0  0  0
   53.1240  155.6790   26.5130 C   0  0  0  0  0  0  0  0  0  0  0  0
   53.4360  154.3840   25.8070 C   0  0  0  0  0  0  0  0  0  0  0  0
   53.3060  153.1560   26.4770 C   0  0  0  0  0  0  0  0  0  0  0  0
   53.5770  151.9530   25.8190 C   0  0  0  0  0  0  0  0  0  0  0  0
   53.9730  151.9660   24.4830 C   0  0  0  0  0  0  0  0  0  0  0  0
   54.0870  153.1780   23.8140 C   0  0  0  0  0  0  0  0  0  0  0  0
   54.4590  153.1890   22.5270 F   0  0  0  0  0  0  0  0  0  0  0  0
   53.8200  154.3830   24.4590 C   0  0  0  0  0  0  0  0  0  0  0  0
   52.5390  157.4930   28.8040 C   0  0  0  0  0  0  0  0  0  0  0  0
   51.7460  158.3960   29.5180 C   0  0  0  0  0  0  0  0  0  0  0  0
   49.5440  161.2500   32.7660 C   0  0  0  0  0  0  0  0  0  0  0  0
   50.5790  162.1400   32.7050 N   0  0  0  0  0  0  0  0  0  0  0  0
   49.2400  160.6920   33.8150 O   0  0  0  0  0  0  0  0  0  0  0  0
   47.3890  160.0739   32.7383 H   0  0  0  0  0  0  0  0  0  0  0  0
   46.7110  160.7073   31.2002 H   0  0  0  0  0  0  0  0  0  0  0  0
   47.6738  159.1908   31.2002 H   0  0  0  0  0  0  0  0  0  0  0  0
   48.5853  161.9572   30.9652 H   0  0  0  0  0  0  0  0  0  0  0  0
   49.0497  158.5585   31.6124 H   0  0  0  0  0  0  0  0  0  0  0  0
   49.1599  156.3089   30.3113 H   0  0  0  0  0  0  0  0  0  0  0  0
   50.5880  154.7040   29.0334 H   0  0  0  0  0  0  0  0  0  0  0  0
   52.1797  156.0946   26.1316 H   0  0  0  0  0  0  0  0  0  0  0  0
   53.9235  156.4138   26.3372 H   0  0  0  0  0  0  0  0  0  0  0  0
   52.9878  153.1411   27.5299 H   0  0  0  0  0  0  0  0  0  0  0  0
   53.4778  150.9975   26.3549 H   0  0  0  0  0  0  0  0  0  0  0  0
   54.1938  151.0229   23.9617 H   0  0  0  0  0  0  0  0  0  0  0  0
   53.9103  155.3327   23.9113 H   0  0  0  0  0  0  0  0  0  0  0  0
   53.4960  157.8292   28.3785 H   0  0  0  0  0  0  0  0  0  0  0  0
   52.0749  159.4371   29.6522 H   0  0  0  0  0  0  0  0  0  0  0  0
   50.8040  162.5760   31.8510 H   0  0  0  0  0  0  0  0  0  0  0  0
   51.0990  162.3470   33.5150 H   0  0  0  0  0  0  0  0  0  0  0  0
  1  2  1  0
  2  3  1  0
  3  4  2  0
  4  5  1  0
  5  6  2  0
  6  7  1  0
  7  8  2  0
  8  9  1  0
  9 10  1  0
 10 11  1  0
 11 12  2  0
 12 13  1  0
 13 14  2  0
 14 15  1  0
 15 16  1  0
 15 17  2  0
  8 18  1  0
 18 19  2  0
  2 20  1  0
 20 21  1  0
 20 22  2  0
 19  5  1  0
 17 11  1  0
  1 23  1  0
  1 24  1  0
  1 25  1  0
  2 26  1  6
  4 27  1  0
  6 28  1  0
  7 29  1  0
 10 30  1  0
 10 31  1  0
 12 32  1  0
 13 33  1  0
 14 34  1  0
 17 35  1  0
 18 36  1  0
 19 37  1  0
 21 38  1  0
 21 39  1  0
M  END
>  <meeko>  (4) 
{"is_sidechain": [false], "free_energy": -9.799, "intermolecular_energy": -13.19, "internal_energy": -0.656}

$$$$
SAG_pdb_out
     RDKit          3D

 39 40  0  0  0  0  0  0  0  0999 V2000
   55.1920  152.0830   25.1560 C   0  0  0  0  0  0  0  0  0  0  0  0
   53.6780  152.0390   25.3130 C   0  0  2  0  0  0  0  0  0  0  0  0
   53.3130  152.8910   26.4740 N   0  0  0  0  0  0  0  0  0  0  0  0
   52.9470  154.0840   26.1400 C   0  0  0  0  0  0  0  0  0  0  0  0
   52.5510  155.0860   27.1480 C   0  0  0  0  0  0  0  0  0  0  0  0
   53.0130  156.4020   27.0730 C   0  0  0  0  0  0  0  0  0  0  0  0
   52.6260  157.3390   28.0390 C   0  0  0  0  0  0  0  0  0  0  0  0
   51.7770  156.9590   29.0800 C   0  0  0  0  0  0  0  0  0  0  0  0
   51.3230  157.7680   30.0840 O   0  0  0  0  0  0  0  0  0  0  0  0
   51.1510  159.1500   29.7820 C   0  0  0  0  0  0  0  0  0  0  0  0
   49.9500  159.6460   30.5470 C   0  0  0  0  0  0  0  0  0  0  0  0
   48.8670  158.7910   30.8070 C   0  0  0  0  0  0  0  0  0  0  0  0
   47.7600  159.2430   31.5310 C   0  0  0  0  0  0  0  0  0  0  0  0
   47.7300  160.5520   32.0080 C   0  0  0  0  0  0  0  0  0  0  0  0
   48.8070  161.3950   31.7640 C   0  0  0  0  0  0  0  0  0  0  0  0
   48.7800  162.6500   32.2310 F   0  0  0  0  0  0  0  0  0  0  0  0
   49.9140  160.9560   31.0440 C   0  0  0  0  0  0  0  0  0  0  0  0
   51.3190  155.6400   29.1470 C   0  0  0  0  0  0  0  0  0  0  0  0
   51.7010  154.7000   28.1860 C   0  0  0  0  0  0  0  0  0  0  0  0
   53.2170  150.6030   25.5890 C   0  0  0  0  0  0  0  0  0  0  0  0
   52.1990  150.4890   26.4950 N   0  0  0  0  0  0  0  0  0  0  0  0
   53.7250  149.6140   25.0700 O   0  0  0  0  0  0  0  0  0  0  0  0
   55.6634  152.0967   26.1498 H   0  0  0  0  0  0  0  0  0  0  0  0
   55.5292  151.1943   24.6024 H   0  0  0  0  0  0  0  0  0  0  0  0
   55.4770  152.9898   24.6024 H   0  0  0  0  0  0  0  0  0  0  0  0
   53.1970  152.3979   24.3911 H   0  0  0  0  0  0  0  0  0  0  0  0
   52.9301  154.3603   25.0754 H   0  0  0  0  0  0  0  0  0  0  0  0
   53.6822  156.7029   26.2535 H   0  0  0  0  0  0  0  0  0  0  0  0
   52.9911  158.3748   27.9775 H   0  0  0  0  0  0  0  0  0  0  0  0
   52.0460  159.7130   30.0855 H   0  0  0  0  0  0  0  0  0  0  0  0
   51.0013  159.2901   28.7013 H   0  0  0  0  0  0  0  0  0  0  0  0
   48.8899  157.7552   30.4373 H   0  0  0  0  0  0  0  0  0  0  0  0
   46.9142  158.5667   31.7238 H   0  0  0  0  0  0  0  0  0  0  0  0
   46.8595  160.9153   32.5739 H   0  0  0  0  0  0  0  0  0  0  0  0
   50.7597  161.6363   30.8652 H   0  0  0  0  0  0  0  0  0  0  0  0
   50.6497  155.3383   29.9662 H   0  0  0  0  0  0  0  0  0  0  0  0
   51.3349  153.6645   28.2470 H   0  0  0  0  0  0  0  0  0  0  0  0
   51.8070  151.2970   26.8980 H   0  0  0  0  0  0  0  0  0  0  0  0
   51.8570  149.5990   26.7420 H   0  0  0  0  0  0  0  0  0  0  0  0
  1  2  1  0
  2  3  1  0
  3  4  2  0
  4  5  1  0
  5  6  2  0
  6  7  1  0
  7  8  2  0
  8  9  1  0
  9 10  1  0
 10 11  1  0
 11 12  2  0
 12 13  1  0
 13 14  2  0
 14 15  1  0
 15 16  1  0
 15 17  2  0
  8 18  1  0
 18 19  2  0
  2 20  1  0
 20 21  1  0
 20 22  2  0
 19  5  1  0
 17 11  1  0
  1 23  1  0
  1 24  1  0
  1 25  1  0
  2 26  1  6
  4 27  1  0
  6 28  1  0
  7 29  1  0
 10 30  1  0
 10 31  1  0
 12 32  1  0
 13 33  1  0
 14 34  1  0
 17 35  1  0
 18 36  1  0
 19 37  1  0
 21 38  1  0
 21 39  1  0
M  END
>  <meeko>  (5) 
{"is_sidechain": [false], "free_energy": -9.796, "intermolecular_energy": -13.27, "internal_energy": -0.573}

$$$$
SAG_pdb_out
     RDKit          3D

 39 40  0  0  0  0  0  0  0  0999 V2000
   53.2720  151.1350   25.4680 C   0  0  0  0  0  0  0  0  0  0  0  0
   54.3970  152.0790   25.8680 C   0  0  2  0  0  0  0  0  0  0  0  0
   53.8890  152.9680   26.9450 N   0  0  0  0  0  0  0  0  0  0  0  0
   53.2210  153.9800   26.5010 C   0  0  0  0  0  0  0  0  0  0  0  0
   52.6380  154.9860   27.4100 C   0  0  0  0  0  0  0  0  0  0  0  0
   52.9920  156.3340   27.3120 C   0  0  0  0  0  0  0  0  0  0  0  0
   52.4280  157.2730   28.1850 C   0  0  0  0  0  0  0  0  0  0  0  0
   51.5100  156.8640   29.1540 C   0  0  0  0  0  0  0  0  0  0  0  0
   50.8860  157.6710   30.0630 O   0  0  0  0  0  0  0  0  0  0  0  0
   51.2320  159.0540   30.0540 C   0  0  0  0  0  0  0  0  0  0  0  0
   50.2550  159.7820   30.9420 C   0  0  0  0  0  0  0  0  0  0  0  0
   50.6520  160.9240   31.6550 C   0  0  0  0  0  0  0  0  0  0  0  0
   49.7430  161.6110   32.4650 C   0  0  0  0  0  0  0  0  0  0  0  0
   48.4250  161.1660   32.5620 C   0  0  0  0  0  0  0  0  0  0  0  0
   48.0270  160.0440   31.8460 C   0  0  0  0  0  0  0  0  0  0  0  0
   46.7590  159.6230   31.9320 F   0  0  0  0  0  0  0  0  0  0  0  0
   48.9240  159.3520   31.0370 C   0  0  0  0  0  0  0  0  0  0  0  0
   51.1610  155.5130   29.2430 C   0  0  0  0  0  0  0  0  0  0  0  0
   51.7200  154.5710   28.3760 C   0  0  0  0  0  0  0  0  0  0  0  0
   54.8150  152.9410   24.6710 C   0  0  0  0  0  0  0  0  0  0  0  0
   55.9850  153.6300   24.8380 N   0  0  0  0  0  0  0  0  0  0  0  0
   54.1540  153.0430   23.6430 O   0  0  0  0  0  0  0  0  0  0  0  0
   52.7922  150.7324   26.3723 H   0  0  0  0  0  0  0  0  0  0  0  0
   52.5281  151.6832   24.8713 H   0  0  0  0  0  0  0  0  0  0  0  0
   53.6827  150.3072   24.8713 H   0  0  0  0  0  0  0  0  0  0  0  0
   55.2660  151.4982   26.2107 H   0  0  0  0  0  0  0  0  0  0  0  0
   53.0827  154.0954   25.4158 H   0  0  0  0  0  0  0  0  0  0  0  0
   53.7144  156.6582   26.5484 H   0  0  0  0  0  0  0  0  0  0  0  0
   52.7087  158.3337   28.1070 H   0  0  0  0  0  0  0  0  0  0  0  0
   52.2548  159.1859   30.4367 H   0  0  0  0  0  0  0  0  0  0  0  0
   51.1895  159.4529   29.0298 H   0  0  0  0  0  0  0  0  0  0  0  0
   51.6890  161.2821   31.5756 H   0  0  0  0  0  0  0  0  0  0  0  0
   50.0668  162.5008   33.0247 H   0  0  0  0  0  0  0  0  0  0  0  0
   47.7057  161.6995   33.2008 H   0  0  0  0  0  0  0  0  0  0  0  0
   48.5889  158.4690   30.4731 H   0  0  0  0  0  0  0  0  0  0  0  0
   50.4374  155.1879   30.0050 H   0  0  0  0  0  0  0  0  0  0  0  0
   51.4389  153.5104   28.4540 H   0  0  0  0  0  0  0  0  0  0  0  0
   56.4980  153.5310   25.6720 H   0  0  0  0  0  0  0  0  0  0  0  0
   56.3140  154.2210   24.1230 H   0  0  0  0  0  0  0  0  0  0  0  0
  1  2  1  0
  2  3  1  0
  3  4  2  0
  4  5  1  0
  5  6  2  0
  6  7  1  0
  7  8  2  0
  8  9  1  0
  9 10  1  0
 10 11  1  0
 11 12  2  0
 12 13  1  0
 13 14  2  0
 14 15  1  0
 15 16  1  0
 15 17  2  0
  8 18  1  0
 18 19  2  0
  2 20  1  0
 20 21  1  0
 20 22  2  0
 19  5  1  0
 17 11  1  0
  1 23  1  0
  1 24  1  0
  1 25  1  0
  2 26  1  1
  4 27  1  0
  6 28  1  0
  7 29  1  0
 10 30  1  0
 10 31  1  0
 12 32  1  0
 13 33  1  0
 14 34  1  0
 17 35  1  0
 18 36  1  0
 19 37  1  0
 21 38  1  0
 21 39  1  0
M  END
>  <meeko>  (6) 
{"is_sidechain": [false], "free_energy": -9.523, "intermolecular_energy": -13.244, "internal_energy": -0.23}

$$$$
SAG_pdb_out
     RDKit          3D

 39 40  0  0  0  0  0  0  0  0999 V2000
   51.2320  161.4170   31.0640 C   0  0  0  0  0  0  0  0  0  0  0  0
   50.1560  160.5630   31.7210 C   0  0  2  0  0  0  0  0  0  0  0  0
   50.0770  159.2770   30.9820 N   0  0  0  0  0  0  0  0  0  0  0  0
   51.1940  158.9300   30.4350 C   0  0  0  0  0  0  0  0  0  0  0  0
   51.3220  157.6860   29.6510 C   0  0  0  0  0  0  0  0  0  0  0  0
   52.3960  157.4960   28.7780 C   0  0  0  0  0  0  0  0  0  0  0  0
   52.5000  156.3090   28.0410 C   0  0  0  0  0  0  0  0  0  0  0  0
   51.5310  155.3130   28.1790 C   0  0  0  0  0  0  0  0  0  0  0  0
   51.5110  154.1140   27.5250 O   0  0  0  0  0  0  0  0  0  0  0  0
   52.6760  153.2980   27.6210 C   0  0  0  0  0  0  0  0  0  0  0  0
   53.1820  153.0480   26.2230 C   0  0  0  0  0  0  0  0  0  0  0  0
   53.4030  154.1180   25.3420 C   0  0  0  0  0  0  0  0  0  0  0  0
   53.8900  153.8900   24.0510 C   0  0  0  0  0  0  0  0  0  0  0  0
   54.1670  152.5900   23.6330 C   0  0  0  0  0  0  0  0  0  0  0  0
   53.9630  151.5310   24.5090 C   0  0  0  0  0  0  0  0  0  0  0  0
   54.2390  150.2820   24.1100 F   0  0  0  0  0  0  0  0  0  0  0  0
   53.4790  151.7460   25.7960 C   0  0  0  0  0  0  0  0  0  0  0  0
   50.4600  155.5130   29.0550 C   0  0  0  0  0  0  0  0  0  0  0  0
   50.3510  156.6950   29.7930 C   0  0  0  0  0  0  0  0  0  0  0  0
   48.7970  161.2680   31.6340 C   0  0  0  0  0  0  0  0  0  0  0  0
   47.8120  160.5450   31.0210 N   0  0  0  0  0  0  0  0  0  0  0  0
   48.5920  162.4030   32.0510 O   0  0  0  0  0  0  0  0  0  0  0  0
   51.8416  161.9008   31.8414 H   0  0  0  0  0  0  0  0  0  0  0  0
   51.8742  160.7801   30.4380 H   0  0  0  0  0  0  0  0  0  0  0  0
   50.7575  162.1871   30.4380 H   0  0  0  0  0  0  0  0  0  0  0  0
   50.4059  160.3968   32.7793 H   0  0  0  0  0  0  0  0  0  0  0  0
   52.0738  159.5789   30.5566 H   0  0  0  0  0  0  0  0  0  0  0  0
   53.1608  158.2791   28.6691 H   0  0  0  0  0  0  0  0  0  0  0  0
   53.3456  156.1615   27.3531 H   0  0  0  0  0  0  0  0  0  0  0  0
   53.4471  153.8151   28.2109 H   0  0  0  0  0  0  0  0  0  0  0  0
   52.4378  152.3463   28.1186 H   0  0  0  0  0  0  0  0  0  0  0  0
   53.1910  155.1463   25.6703 H   0  0  0  0  0  0  0  0  0  0  0  0
   54.0541  154.7355   23.3667 H   0  0  0  0  0  0  0  0  0  0  0  0
   54.5445  152.4034   22.6168 H   0  0  0  0  0  0  0  0  0  0  0  0
   53.3296  150.8955   26.4774 H   0  0  0  0  0  0  0  0  0  0  0  0
   49.6942  154.7310   29.1647 H   0  0  0  0  0  0  0  0  0  0  0  0
   49.5054  156.8426   30.4809 H   0  0  0  0  0  0  0  0  0  0  0  0
   48.0000  159.6350   30.6950 H   0  0  0  0  0  0  0  0  0  0  0  0
   46.9140  160.9330   30.9080 H   0  0  0  0  0  0  0  0  0  0  0  0
  1  2  1  0
  2  3  1  0
  3  4  2  0
  4  5  1  0
  5  6  2  0
  6  7  1  0
  7  8  2  0
  8  9  1  0
  9 10  1  0
 10 11  1  0
 11 12  2  0
 12 13  1  0
 13 14  2  0
 14 15  1  0
 15 16  1  0
 15 17  2  0
  8 18  1  0
 18 19  2  0
  2 20  1  0
 20 21  1  0
 20 22  2  0
 19  5  1  0
 17 11  1  0
  1 23  1  0
  1 24  1  0
  1 25  1  0
  2 26  1  1
  4 27  1  0
  6 28  1  0
  7 29  1  0
 10 30  1  0
 10 31  1  0
 12 32  1  0
 13 33  1  0
 14 34  1  0
 17 35  1  0
 18 36  1  0
 19 37  1  0
 21 38  1  0
 21 39  1  0
M  END
>  <meeko>  (7) 
{"is_sidechain": [false], "free_energy": -9.262, "intermolecular_energy": -12.494, "internal_energy": -0.626}

$$$$
SAG_pdb_out
     RDKit          3D

 39 40  0  0  0  0  0  0  0  0999 V2000
   49.2010  160.4720   31.0660 C   0  0  0  0  0  0  0  0  0  0  0  0
   50.5210  160.9320   30.4630 C   0  0  2  0  0  0  0  0  0  0  0  0
   51.1990  159.7450   29.8830 N   0  0  0  0  0  0  0  0  0  0  0  0
   50.6130  158.6300   30.1670 C   0  0  0  0  0  0  0  0  0  0  0  0
   51.1350  157.3340   29.6900 C   0  0  0  0  0  0  0  0  0  0  0  0
   50.5210  156.1340   30.0590 C   0  0  0  0  0  0  0  0  0  0  0  0
   51.0310  154.9140   29.5970 C   0  0  0  0  0  0  0  0  0  0  0  0
   52.1530  154.8950   28.7660 C   0  0  0  0  0  0  0  0  0  0  0  0
   52.7510  153.7810   28.2460 O   0  0  0  0  0  0  0  0  0  0  0  0
   51.9770  152.9790   27.3580 C   0  0  0  0  0  0  0  0  0  0  0  0
   52.7510  152.8330   26.0730 C   0  0  0  0  0  0  0  0  0  0  0  0
   53.0100  153.9510   25.2640 C   0  0  0  0  0  0  0  0  0  0  0  0
   53.7440  153.8220   24.0810 C   0  0  0  0  0  0  0  0  0  0  0  0
   54.2310  152.5730   23.7000 C   0  0  0  0  0  0  0  0  0  0  0  0
   53.9880  151.4670   24.5060 C   0  0  0  0  0  0  0  0  0  0  0  0
   54.4650  150.2690   24.1430 F   0  0  0  0  0  0  0  0  0  0  0  0
   53.2590  151.5850   25.6860 C   0  0  0  0  0  0  0  0  0  0  0  0
   52.7600  156.1010   28.4030 C   0  0  0  0  0  0  0  0  0  0  0  0
   52.2560  157.3210   28.8600 C   0  0  0  0  0  0  0  0  0  0  0  0
   51.4190  161.5320   31.5520 C   0  0  0  0  0  0  0  0  0  0  0  0
   50.7790  161.8430   32.7190 N   0  0  0  0  0  0  0  0  0  0  0  0
   52.6160  161.7510   31.4010 O   0  0  0  0  0  0  0  0  0  0  0  0
   49.2710  160.4964   32.1635 H   0  0  0  0  0  0  0  0  0  0  0  0
   48.3936  161.1417   30.7351 H   0  0  0  0  0  0  0  0  0  0  0  0
   48.9847  159.4455   30.7351 H   0  0  0  0  0  0  0  0  0  0  0  0
   50.3329  161.6956   29.6938 H   0  0  0  0  0  0  0  0  0  0  0  0
   49.7003  158.6462   30.7808 H   0  0  0  0  0  0  0  0  0  0  0  0
   49.6365  156.1476   30.7128 H   0  0  0  0  0  0  0  0  0  0  0  0
   50.5473  153.9702   29.8890 H   0  0  0  0  0  0  0  0  0  0  0  0
   51.8029  151.9887   27.8042 H   0  0  0  0  0  0  0  0  0  0  0  0
   51.0018  153.4505   27.1668 H   0  0  0  0  0  0  0  0  0  0  0  0
   52.6313  154.9392   25.5642 H   0  0  0  0  0  0  0  0  0  0  0  0
   53.9366  154.7041   23.4526 H   0  0  0  0  0  0  0  0  0  0  0  0
   54.8040  152.4632   22.7675 H   0  0  0  0  0  0  0  0  0  0  0  0
   53.0817  150.6997   26.3143 H   0  0  0  0  0  0  0  0  0  0  0  0
   53.6450  156.0890   27.7498 H   0  0  0  0  0  0  0  0  0  0  0  0
   52.7396  158.2647   28.5675 H   0  0  0  0  0  0  0  0  0  0  0  0
   49.8170  161.6570   32.8170 H   0  0  0  0  0  0  0  0  0  0  0  0
   51.2800  162.2500   33.4620 H   0  0  0  0  0  0  0  0  0  0  0  0
  1  2  1  0
  2  3  1  0
  3  4  2  0
  4  5  1  0
  5  6  2  0
  6  7  1  0
  7  8  2  0
  8  9  1  0
  9 10  1  0
 10 11  1  0
 11 12  2  0
 12 13  1  0
 13 14  2  0
 14 15  1  0
 15 16  1  0
 15 17  2  0
  8 18  1  0
 18 19  2  0
  2 20  1  0
 20 21  1  0
 20 22  2  0
 19  5  1  0
 17 11  1  0
  1 23  1  0
  1 24  1  0
  1 25  1  0
  2 26  1  6
  4 27  1  0
  6 28  1  0
  7 29  1  0
 10 30  1  0
 10 31  1  0
 12 32  1  0
 13 33  1  0
 14 34  1  0
 17 35  1  0
 18 36  1  0
 19 37  1  0
 21 38  1  0
 21 39  1  0
M  END
>  <meeko>  (8) 
{"is_sidechain": [false], "free_energy": -9.226, "intermolecular_energy": -12.351, "internal_energy": -0.721}

$$$$
SAG_pdb_out
     RDKit          3D

 39 40  0  0  0  0  0  0  0  0999 V2000
   52.0990  161.0490   30.7530 C   0  0  0  0  0  0  0  0  0  0  0  0
   51.3040  159.7520   30.8100 C   0  0  2  0  0  0  0  0  0  0  0  0
   51.5730  158.9940   29.5610 N   0  0  0  0  0  0  0  0  0  0  0  0
   51.7130  157.7240   29.7520 C   0  0  0  0  0  0  0  0  0  0  0  0
   51.9920  156.7970   28.6390 C   0  0  0  0  0  0  0  0  0  0  0  0
   52.8280  157.1730   27.5840 C   0  0  0  0  0  0  0  0  0  0  0  0
   53.0810  156.2790   26.5350 C   0  0  0  0  0  0  0  0  0  0  0  0
   52.4990  155.0100   26.5420 C   0  0  0  0  0  0  0  0  0  0  0  0
   52.6600  154.0450   25.5890 O   0  0  0  0  0  0  0  0  0  0  0  0
   53.8660  153.2860   25.6250 C   0  0  0  0  0  0  0  0  0  0  0  0
   53.4950  151.8260   25.6400 C   0  0  0  0  0  0  0  0  0  0  0  0
   52.4030  151.3740   26.3990 C   0  0  0  0  0  0  0  0  0  0  0  0
   52.0450  150.0230   26.3990 C   0  0  0  0  0  0  0  0  0  0  0  0
   52.7720  149.1110   25.6350 C   0  0  0  0  0  0  0  0  0  0  0  0
   53.8440  149.5590   24.8720 C   0  0  0  0  0  0  0  0  0  0  0  0
   54.5350  148.6840   24.1310 F   0  0  0  0  0  0  0  0  0  0  0  0
   54.2090  150.9020   24.8640 C   0  0  0  0  0  0  0  0  0  0  0  0
   51.6640  154.6430   27.6020 C   0  0  0  0  0  0  0  0  0  0  0  0
   51.4070  155.5300   28.6520 C   0  0  0  0  0  0  0  0  0  0  0  0
   49.8020  160.0550   30.8900 C   0  0  0  0  0  0  0  0  0  0  0  0
   49.2190  160.3930   29.7000 N   0  0  0  0  0  0  0  0  0  0  0  0
   49.1590  160.0290   31.9340 O   0  0  0  0  0  0  0  0  0  0  0  0
   52.3108  161.3945   31.7756 H   0  0  0  0  0  0  0  0  0  0  0  0
   53.0461  160.8755   30.2211 H   0  0  0  0  0  0  0  0  0  0  0  0
   51.5146  161.8142   30.2211 H   0  0  0  0  0  0  0  0  0  0  0  0
   51.6000  159.1729   31.6971 H   0  0  0  0  0  0  0  0  0  0  0  0
   51.6217  157.3230   30.7722 H   0  0  0  0  0  0  0  0  0  0  0  0
   53.2880  158.1722   27.5771 H   0  0  0  0  0  0  0  0  0  0  0  0
   53.7387  156.5773   25.7053 H   0  0  0  0  0  0  0  0  0  0  0  0
   54.4738  153.5079   24.7354 H   0  0  0  0  0  0  0  0  0  0  0  0
   54.4523  153.5412   26.5200 H   0  0  0  0  0  0  0  0  0  0  0  0
   51.8236  152.0907   26.9996 H   0  0  0  0  0  0  0  0  0  0  0  0
   51.1908  149.6797   27.0010 H   0  0  0  0  0  0  0  0  0  0  0  0
   52.4994  148.0453   25.6361 H   0  0  0  0  0  0  0  0  0  0  0  0
   55.0570  151.2383   24.2493 H   0  0  0  0  0  0  0  0  0  0  0  0
   51.2036  153.6440   27.6099 H   0  0  0  0  0  0  0  0  0  0  0  0
   50.7491  155.2315   29.4815 H   0  0  0  0  0  0  0  0  0  0  0  0
   49.7560  160.4070   28.8760 H   0  0  0  0  0  0  0  0  0  0  0  0
   48.2620  160.6210   29.6690 H   0  0  0  0  0  0  0  0  0  0  0  0
  1  2  1  0
  2  3  1  0
  3  4  2  0
  4  5  1  0
  5  6  2  0
  6  7  1  0
  7  8  2  0
  8  9  1  0
  9 10  1  0
 10 11  1  0
 11 12  2  0
 12 13  1  0
 13 14  2  0
 14 15  1  0
 15 16  1  0
 15 17  2  0
  8 18  1  0
 18 19  2  0
  2 20  1  0
 20 21  1  0
 20 22  2  0
 19  5  1  0
 17 11  1  0
  1 23  1  0
  1 24  1  0
  1 25  1  0
  2 26  1  1
  4 27  1  0
  6 28  1  0
  7 29  1  0
 10 30  1  0
 10 31  1  0
 12 32  1  0
 13 33  1  0
 14 34  1  0
 17 35  1  0
 18 36  1  0
 19 37  1  0
 21 38  1  0
 21 39  1  0
M  END
>  <meeko>  (9) 
{"is_sidechain": [false], "free_energy": -8.534, "intermolecular_energy": -11.563, "internal_energy": -0.575}

$$$$
