selegiline_out
     RDKit          3D

 32 32  0  0  0  0  0  0  0  0999 V2000
   54.8300  156.9600   24.3850 C   0  0  0  0  0  0  0  0  0  0  0  0
   54.9950  155.7730   24.3010 C   0  0  0  0  0  0  0  0  0  0  0  0
   55.2040  154.3180   24.1990 C   0  0  0  0  0  0  0  0  0  0  0  0
   53.9630  153.5710   24.4680 N   0  0  1  0  0  0  0  0  0  0  0  0
   54.0800  152.1790   24.0280 C   0  0  0  0  0  0  0  0  0  0  0  0
   53.5240  153.7220   25.8800 C   0  0  2  0  0  0  0  0  0  0  0  0
   53.3830  152.3940   26.6420 C   0  0  0  0  0  0  0  0  0  0  0  0
   52.2160  154.5570   25.9540 C   0  0  0  0  0  0  0  0  0  0  0  0
   52.0850  155.3740   27.2210 C   0  0  0  0  0  0  0  0  0  0  0  0
   52.7660  156.5910   27.3610 C   0  0  0  0  0  0  0  0  0  0  0  0
   52.6350  157.3450   28.5280 C   0  0  0  0  0  0  0  0  0  0  0  0
   51.8230  156.8910   29.5660 C   0  0  0  0  0  0  0  0  0  0  0  0
   51.1440  155.6810   29.4380 C   0  0  0  0  0  0  0  0  0  0  0  0
   51.2730  154.9250   28.2730 C   0  0  0  0  0  0  0  0  0  0  0  0
   54.6789  158.0469   24.4619 H   0  0  0  0  0  0  0  0  0  0  0  0
   55.5521  154.0778   23.1835 H   0  0  0  0  0  0  0  0  0  0  0  0
   55.9516  154.0246   24.9506 H   0  0  0  0  0  0  0  0  0  0  0  0
   53.2140  153.9810   23.9100 H   0  0  0  0  0  0  0  0  0  0  0  0
   54.1354  151.5200   24.9070 H   0  0  0  0  0  0  0  0  0  0  0  0
   53.2013  151.9105   23.4233 H   0  0  0  0  0  0  0  0  0  0  0  0
   54.9912  152.0610   23.4233 H   0  0  0  0  0  0  0  0  0  0  0  0
   54.3316  154.2633   26.3946 H   0  0  0  0  0  0  0  0  0  0  0  0
   53.4036  152.5884   27.7245 H   0  0  0  0  0  0  0  0  0  0  0  0
   52.4291  151.9166   26.3733 H   0  0  0  0  0  0  0  0  0  0  0  0
   54.2154  151.7269   26.3733 H   0  0  0  0  0  0  0  0  0  0  0  0
   52.1934  155.2433   25.0947 H   0  0  0  0  0  0  0  0  0  0  0  0
   51.3789  153.8435   25.9444 H   0  0  0  0  0  0  0  0  0  0  0  0
   53.4083  156.9544   26.5453 H   0  0  0  0  0  0  0  0  0  0  0  0
   53.1733  158.2990   28.6288 H   0  0  0  0  0  0  0  0  0  0  0  0
   51.7184  157.4869   30.4846 H   0  0  0  0  0  0  0  0  0  0  0  0
   50.5047  155.3211   30.2577 H   0  0  0  0  0  0  0  0  0  0  0  0
   50.7345  153.9705   28.1786 H   0  0  0  0  0  0  0  0  0  0  0  0
  1  2  3  0
  2  3  1  0
  3  4  1  0
  4  5  1  0
  4  6  1  0
  6  7  1  0
  6  8  1  0
  8  9  1  0
  9 10  2  0
 10 11  1  0
 11 12  2  0
 12 13  1  0
 13 14  2  0
 14  9  1  0
  1 15  1  0
  3 16  1  0
  3 17  1  0
  4 18  1  6
  5 19  1  0
  5 20  1  0
  5 21  1  0
  6 22  1  1
  7 23  1  0
  7 24  1  0
  7 25  1  0
  8 26  1  0
  8 27  1  0
 10 28  1  0
 11 29  1  0
 12 30  1  0
 13 31  1  0
 14 32  1  0
M  CHG  1   4   1
M  END
>  <meeko>  (1) 
{"is_sidechain": [false], "free_energy": -7.136, "intermolecular_energy": -8.805, "internal_energy": -0.613}

$$$$
selegiline_out
     RDKit          3D

 32 32  0  0  0  0  0  0  0  0999 V2000
   54.1750  153.0500   23.3210 C   0  0  0  0  0  0  0  0  0  0  0  0
   54.0370  153.2350   24.5000 C   0  0  0  0  0  0  0  0  0  0  0  0
   53.8760  153.4620   25.9470 C   0  0  0  0  0  0  0  0  0  0  0  0
   52.4940  153.8410   26.2860 N   0  0  1  0  0  0  0  0  0  0  0  0
   51.8990  152.8830   27.2220 C   0  0  0  0  0  0  0  0  0  0  0  0
   52.4050  155.2550   26.7340 C   0  0  2  0  0  0  0  0  0  0  0  0
   53.2820  156.2280   25.9290 C   0  0  0  0  0  0  0  0  0  0  0  0
   52.6970  155.3600   28.2570 C   0  0  0  0  0  0  0  0  0  0  0  0
   51.9290  156.4650   28.9510 C   0  0  0  0  0  0  0  0  0  0  0  0
   52.4680  157.7540   29.0550 C   0  0  0  0  0  0  0  0  0  0  0  0
   51.7520  158.7710   29.6880 C   0  0  0  0  0  0  0  0  0  0  0  0
   50.4920  158.5090   30.2230 C   0  0  0  0  0  0  0  0  0  0  0  0
   49.9480  157.2300   30.1270 C   0  0  0  0  0  0  0  0  0  0  0  0
   50.6620  156.2120   29.4950 C   0  0  0  0  0  0  0  0  0  0  0  0
   54.3014  152.8806   22.2415 H   0  0  0  0  0  0  0  0  0  0  0  0
   54.1346  152.5376   26.4843 H   0  0  0  0  0  0  0  0  0  0  0  0
   54.5411  154.2871   26.2418 H   0  0  0  0  0  0  0  0  0  0  0  0
   51.9300  153.7930   25.4380 H   0  0  0  0  0  0  0  0  0  0  0  0
   52.0996  153.2060   28.2542 H   0  0  0  0  0  0  0  0  0  0  0  0
   50.8124  152.8358   27.0572 H   0  0  0  0  0  0  0  0  0  0  0  0
   52.3384  151.8881   27.0572 H   0  0  0  0  0  0  0  0  0  0  0  0
   51.3702  155.5727   26.5382 H   0  0  0  0  0  0  0  0  0  0  0  0
   53.8547  156.8634   26.6206 H   0  0  0  0  0  0  0  0  0  0  0  0
   53.9765  155.6570   25.2952 H   0  0  0  0  0  0  0  0  0  0  0  0
   52.6422  156.8597   25.2952 H   0  0  0  0  0  0  0  0  0  0  0  0
   52.4296  154.4027   28.7283 H   0  0  0  0  0  0  0  0  0  0  0  0
   53.7659  155.5970   28.3630 H   0  0  0  0  0  0  0  0  0  0  0  0
   53.4623  157.9659   28.6349 H   0  0  0  0  0  0  0  0  0  0  0  0
   52.1825  159.7803   29.7648 H   0  0  0  0  0  0  0  0  0  0  0  0
   49.9275  159.3114   30.7206 H   0  0  0  0  0  0  0  0  0  0  0  0
   48.9541  157.0227   30.5502 H   0  0  0  0  0  0  0  0  0  0  0  0
   50.2280  155.2038   29.4230 H   0  0  0  0  0  0  0  0  0  0  0  0
  1  2  3  0
  2  3  1  0
  3  4  1  0
  4  5  1  0
  4  6  1  0
  6  7  1  0
  6  8  1  0
  8  9  1  0
  9 10  2  0
 10 11  1  0
 11 12  2  0
 12 13  1  0
 13 14  2  0
 14  9  1  0
  1 15  1  0
  3 16  1  0
  3 17  1  0
  4 18  1  6
  5 19  1  0
  5 20  1  0
  5 21  1  0
  6 22  1  1
  7 23  1  0
  7 24  1  0
  7 25  1  0
  8 26  1  0
  8 27  1  0
 10 28  1  0
 11 29  1  0
 12 30  1  0
 13 31  1  0
 14 32  1  0
M  CHG  1   4   1
M  END
>  <meeko>  (2) 
{"is_sidechain": [false], "free_energy": -7.124, "intermolecular_energy": -9.131, "internal_energy": -0.272}

$$$$
selegiline_out
     RDKit          3D

 32 32  0  0  0  0  0  0  0  0999 V2000
   51.9570  154.1730   28.8400 C   0  0  0  0  0  0  0  0  0  0  0  0
   51.4260  155.1830   29.2150 C   0  0  0  0  0  0  0  0  0  0  0  0
   50.7710  156.4180   29.6790 C   0  0  0  0  0  0  0  0  0  0  0  0
   51.6980  157.5620   29.6680 N   0  0  1  0  0  0  0  0  0  0  0  0
   52.6020  157.4970   28.5170 C   0  0  0  0  0  0  0  0  0  0  0  0
   50.9780  158.8560   29.7970 C   0  0  2  0  0  0  0  0  0  0  0  0
   51.8140  159.9840   30.4250 C   0  0  0  0  0  0  0  0  0  0  0  0
   49.6380  158.6570   30.5570 C   0  0  0  0  0  0  0  0  0  0  0  0
   49.2330  159.8460   31.4010 C   0  0  0  0  0  0  0  0  0  0  0  0
   49.4080  159.8290   32.7910 C   0  0  0  0  0  0  0  0  0  0  0  0
   49.0410  160.9320   33.5640 C   0  0  0  0  0  0  0  0  0  0  0  0
   48.4950  162.0610   32.9560 C   0  0  0  0  0  0  0  0  0  0  0  0
   48.3140  162.0870   31.5750 C   0  0  0  0  0  0  0  0  0  0  0  0
   48.6800  160.9860   30.8000 C   0  0  0  0  0  0  0  0  0  0  0  0
   52.4433  153.2480   28.4966 H   0  0  0  0  0  0  0  0  0  0  0  0
   49.9211  156.6412   29.0173 H   0  0  0  0  0  0  0  0  0  0  0  0
   50.4332  156.2596   30.7138 H   0  0  0  0  0  0  0  0  0  0  0  0
   52.2920  157.5030   30.4950 H   0  0  0  0  0  0  0  0  0  0  0  0
   53.6410  157.4223   28.8705 H   0  0  0  0  0  0  0  0  0  0  0  0
   52.3575  156.6141   27.9081 H   0  0  0  0  0  0  0  0  0  0  0  0
   52.4863  158.4058   27.9081 H   0  0  0  0  0  0  0  0  0  0  0  0
   50.7688  159.1918   28.7706 H   0  0  0  0  0  0  0  0  0  0  0  0
   51.7612  159.9127   31.5214 H   0  0  0  0  0  0  0  0  0  0  0  0
   52.8609  159.8882   30.1014 H   0  0  0  0  0  0  0  0  0  0  0  0
   51.4178  160.9578   30.1014 H   0  0  0  0  0  0  0  0  0  0  0  0
   48.8447  158.4695   29.8184 H   0  0  0  0  0  0  0  0  0  0  0  0
   49.7817  157.8101   31.2440 H   0  0  0  0  0  0  0  0  0  0  0  0
   49.8376  158.9404   33.2766 H   0  0  0  0  0  0  0  0  0  0  0  0
   49.1830  160.9100   34.6546 H   0  0  0  0  0  0  0  0  0  0  0  0
   48.2074  162.9302   33.5657 H   0  0  0  0  0  0  0  0  0  0  0  0
   47.8817  162.9772   31.0946 H   0  0  0  0  0  0  0  0  0  0  0  0
   48.5338  161.0124   29.7101 H   0  0  0  0  0  0  0  0  0  0  0  0
  1  2  3  0
  2  3  1  0
  3  4  1  0
  4  5  1  0
  4  6  1  0
  6  7  1  0
  6  8  1  0
  8  9  1  0
  9 10  2  0
 10 11  1  0
 11 12  2  0
 12 13  1  0
 13 14  2  0
 14  9  1  0
  1 15  1  0
  3 16  1  0
  3 17  1  0
  4 18  1  1
  5 19  1  0
  5 20  1  0
  5 21  1  0
  6 22  1  6
  7 23  1  0
  7 24  1  0
  7 25  1  0
  8 26  1  0
  8 27  1  0
 10 28  1  0
 11 29  1  0
 12 30  1  0
 13 31  1  0
 14 32  1  0
M  CHG  1   4   1
M  END
>  <meeko>  (3) 
{"is_sidechain": [false], "free_energy": -6.649, "intermolecular_energy": -8.834, "internal_energy": 0.016}

$$$$
selegiline_out
     RDKit          3D

 32 32  0  0  0  0  0  0  0  0999 V2000
   50.0040  158.5430   30.3740 C   0  0  0  0  0  0  0  0  0  0  0  0
   51.0130  158.0980   29.8970 C   0  0  0  0  0  0  0  0  0  0  0  0
   52.2540  157.5580   29.3150 C   0  0  0  0  0  0  0  0  0  0  0  0
   52.1580  156.1070   29.0820 N   0  0  1  0  0  0  0  0  0  0  0  0
   50.7740  155.6440   29.2020 C   0  0  0  0  0  0  0  0  0  0  0  0
   52.8190  155.7090   27.8110 C   0  0  2  0  0  0  0  0  0  0  0  0
   53.1160  156.8800   26.8600 C   0  0  0  0  0  0  0  0  0  0  0  0
   51.9990  154.5980   27.1000 C   0  0  0  0  0  0  0  0  0  0  0  0
   52.7930  153.8130   26.0780 C   0  0  0  0  0  0  0  0  0  0  0  0
   53.2710  152.5300   26.3760 C   0  0  0  0  0  0  0  0  0  0  0  0
   53.9950  151.8070   25.4270 C   0  0  0  0  0  0  0  0  0  0  0  0
   54.2480  152.3580   24.1720 C   0  0  0  0  0  0  0  0  0  0  0  0
   53.7800  153.6340   23.8670 C   0  0  0  0  0  0  0  0  0  0  0  0
   53.0560  154.3590   24.8140 C   0  0  0  0  0  0  0  0  0  0  0  0
   49.0802  158.9504   30.8107 H   0  0  0  0  0  0  0  0  0  0  0  0
   52.4469  158.0613   28.3561 H   0  0  0  0  0  0  0  0  0  0  0  0
   53.0738  157.7384   30.0259 H   0  0  0  0  0  0  0  0  0  0  0  0
   52.6800  155.6290   29.8160 H   0  0  0  0  0  0  0  0  0  0  0  0
   50.5080  155.5550   30.2657 H   0  0  0  0  0  0  0  0  0  0  0  0
   50.1022  156.3663   28.7152 H   0  0  0  0  0  0  0  0  0  0  0  0
   50.6721  154.6628   28.7152 H   0  0  0  0  0  0  0  0  0  0  0  0
   53.8056  155.3115   28.0914 H   0  0  0  0  0  0  0  0  0  0  0  0
   53.3445  157.7811   27.4481 H   0  0  0  0  0  0  0  0  0  0  0  0
   53.9786  156.6276   26.2258 H   0  0  0  0  0  0  0  0  0  0  0  0
   52.2374  157.0692   26.2258 H   0  0  0  0  0  0  0  0  0  0  0  0
   51.6282  153.8981   27.8633 H   0  0  0  0  0  0  0  0  0  0  0  0
   51.1839  155.0988   26.5570 H   0  0  0  0  0  0  0  0  0  0  0  0
   53.0742  152.0897   27.3646 H   0  0  0  0  0  0  0  0  0  0  0  0
   54.3666  150.8006   25.6698 H   0  0  0  0  0  0  0  0  0  0  0  0
   54.8163  151.7862   23.4237 H   0  0  0  0  0  0  0  0  0  0  0  0
   53.9816  154.0708   22.8778 H   0  0  0  0  0  0  0  0  0  0  0  0
   52.6890  155.3661   24.5670 H   0  0  0  0  0  0  0  0  0  0  0  0
  1  2  3  0
  2  3  1  0
  3  4  1  0
  4  5  1  0
  4  6  1  0
  6  7  1  0
  6  8  1  0
  8  9  1  0
  9 10  2  0
 10 11  1  0
 11 12  2  0
 12 13  1  0
 13 14  2  0
 14  9  1  0
  1 15  1  0
  3 16  1  0
  3 17  1  0
  4 18  1  1
  5 19  1  0
  5 20  1  0
  5 21  1  0
  6 22  1  1
  7 23  1  0
  7 24  1  0
  7 25  1  0
  8 26  1  0
  8 27  1  0
 10 28  1  0
 11 29  1  0
 12 30  1  0
 13 31  1  0
 14 32  1  0
M  CHG  1   4   1
M  END
>  <meeko>  (4) 
{"is_sidechain": [false], "free_energy": -6.646, "intermolecular_energy": -8.965, "internal_energy": 0.151}

$$$$
selegiline_out
     RDKit          3D

 32 32  0  0  0  0  0  0  0  0999 V2000
   51.1530  160.9190   31.3940 C   0  0  0  0  0  0  0  0  0  0  0  0
   51.3120  160.0010   30.6360 C   0  0  0  0  0  0  0  0  0  0  0  0
   51.5130  158.8770   29.7040 C   0  0  0  0  0  0  0  0  0  0  0  0
   50.7490  157.6870   30.1160 N   0  0  1  0  0  0  0  0  0  0  0  0
   49.3080  157.9470   30.0810 C   0  0  0  0  0  0  0  0  0  0  0  0
   51.1610  156.4780   29.3560 C   0  0  2  0  0  0  0  0  0  0  0  0
   51.1360  155.1780   30.1770 C   0  0  0  0  0  0  0  0  0  0  0  0
   52.5500  156.7010   28.6950 C   0  0  0  0  0  0  0  0  0  0  0  0
   52.7060  156.0130   27.3560 C   0  0  0  0  0  0  0  0  0  0  0  0
   52.1710  154.7350   27.1430 C   0  0  0  0  0  0  0  0  0  0  0  0
   52.3100  154.1090   25.9030 C   0  0  0  0  0  0  0  0  0  0  0  0
   52.9840  154.7520   24.8670 C   0  0  0  0  0  0  0  0  0  0  0  0
   53.5220  156.0210   25.0700 C   0  0  0  0  0  0  0  0  0  0  0  0
   53.3850  156.6500   26.3080 C   0  0  0  0  0  0  0  0  0  0  0  0
   51.0074  161.7598   32.0882 H   0  0  0  0  0  0  0  0  0  0  0  0
   51.1835  159.1826   28.7000 H   0  0  0  0  0  0  0  0  0  0  0  0
   52.5817  158.6167   29.7048 H   0  0  0  0  0  0  0  0  0  0  0  0
   50.9740  157.4810   31.0890 H   0  0  0  0  0  0  0  0  0  0  0  0
   48.9229  158.0165   31.1090 H   0  0  0  0  0  0  0  0  0  0  0  0
   49.1189  158.8938   29.5538 H   0  0  0  0  0  0  0  0  0  0  0  0
   48.8000  157.1260   29.5538 H   0  0  0  0  0  0  0  0  0  0  0  0
   50.4022  156.3370   28.5722 H   0  0  0  0  0  0  0  0  0  0  0  0
   51.1407  155.4216   31.2497 H   0  0  0  0  0  0  0  0  0  0  0  0
   50.2267  154.6085   29.9343 H   0  0  0  0  0  0  0  0  0  0  0  0
   52.0227  154.5739   29.9343 H   0  0  0  0  0  0  0  0  0  0  0  0
   52.6952  157.7815   28.5489 H   0  0  0  0  0  0  0  0  0  0  0  0
   53.3003  156.2632   29.3698 H   0  0  0  0  0  0  0  0  0  0  0  0
   51.6385  154.2224   27.9577 H   0  0  0  0  0  0  0  0  0  0  0  0
   51.8866  153.1063   25.7436 H   0  0  0  0  0  0  0  0  0  0  0  0
   53.0913  154.2583   23.8899 H   0  0  0  0  0  0  0  0  0  0  0  0
   54.0558  156.5281   24.2527 H   0  0  0  0  0  0  0  0  0  0  0  0
   53.8124  157.6517   26.4625 H   0  0  0  0  0  0  0  0  0  0  0  0
  1  2  3  0
  2  3  1  0
  3  4  1  0
  4  5  1  0
  4  6  1  0
  6  7  1  0
  6  8  1  0
  8  9  1  0
  9 10  2  0
 10 11  1  0
 11 12  2  0
 12 13  1  0
 13 14  2  0
 14  9  1  0
  1 15  1  0
  3 16  1  0
  3 17  1  0
  4 18  1  1
  5 19  1  0
  5 20  1  0
  5 21  1  0
  6 22  1  6
  7 23  1  0
  7 24  1  0
  7 25  1  0
  8 26  1  0
  8 27  1  0
 10 28  1  0
 11 29  1  0
 12 30  1  0
 13 31  1  0
 14 32  1  0
M  CHG  1   4   1
M  END
>  <meeko>  (5) 
{"is_sidechain": [false], "free_energy": -6.624, "intermolecular_energy": -8.655, "internal_energy": -0.132}

$$$$
selegiline_out
     RDKit          3D

 32 32  0  0  0  0  0  0  0  0999 V2000
   53.2990  156.0930   25.1930 C   0  0  0  0  0  0  0  0  0  0  0  0
   53.0240  156.2570   26.3500 C   0  0  0  0  0  0  0  0  0  0  0  0
   52.6900  156.4650   27.7700 C   0  0  0  0  0  0  0  0  0  0  0  0
   51.5020  155.6910   28.1670 N   0  0  1  0  0  0  0  0  0  0  0  0
   51.6440  154.2800   27.7980 C   0  0  0  0  0  0  0  0  0  0  0  0
   51.1560  155.9080   29.5970 C   0  0  2  0  0  0  0  0  0  0  0  0
   51.1960  154.6330   30.4560 C   0  0  0  0  0  0  0  0  0  0  0  0
   49.7840  156.6270   29.7190 C   0  0  0  0  0  0  0  0  0  0  0  0
   49.8940  158.0880   30.1000 C   0  0  0  0  0  0  0  0  0  0  0  0
   48.7580  158.8120   30.4870 C   0  0  0  0  0  0  0  0  0  0  0  0
   48.8650  160.1570   30.8460 C   0  0  0  0  0  0  0  0  0  0  0  0
   50.1060  160.7900   30.8220 C   0  0  0  0  0  0  0  0  0  0  0  0
   51.2410  160.0790   30.4360 C   0  0  0  0  0  0  0  0  0  0  0  0
   51.1370  158.7350   30.0760 C   0  0  0  0  0  0  0  0  0  0  0  0
   53.5510  155.9427   24.1328 H   0  0  0  0  0  0  0  0  0  0  0  0
   53.5441  156.1497   28.3874 H   0  0  0  0  0  0  0  0  0  0  0  0
   52.4703  157.5325   27.9187 H   0  0  0  0  0  0  0  0  0  0  0  0
   50.7010  156.0400   27.6420 H   0  0  0  0  0  0  0  0  0  0  0  0
   51.7057  153.6671   28.7093 H   0  0  0  0  0  0  0  0  0  0  0  0
   50.7728  153.9669   27.2038 H   0  0  0  0  0  0  0  0  0  0  0  0
   52.5601  154.1468   27.2038 H   0  0  0  0  0  0  0  0  0  0  0  0
   51.9451  156.5554   30.0071 H   0  0  0  0  0  0  0  0  0  0  0  0
   51.1874  154.9080   31.5210 H   0  0  0  0  0  0  0  0  0  0  0  0
   50.3169  154.0113   30.2307 H   0  0  0  0  0  0  0  0  0  0  0  0
   52.1123  154.0677   30.2307 H   0  0  0  0  0  0  0  0  0  0  0  0
   49.2688  156.5588   28.7495 H   0  0  0  0  0  0  0  0  0  0  0  0
   49.2290  156.1255   30.5255 H   0  0  0  0  0  0  0  0  0  0  0  0
   47.7757  158.3173   30.5080 H   0  0  0  0  0  0  0  0  0  0  0  0
   47.9682  160.7178   31.1482 H   0  0  0  0  0  0  0  0  0  0  0  0
   50.1899  161.8491   31.1072 H   0  0  0  0  0  0  0  0  0  0  0  0
   52.2208  160.5785   30.4151 H   0  0  0  0  0  0  0  0  0  0  0  0
   52.0363  158.1797   29.7714 H   0  0  0  0  0  0  0  0  0  0  0  0
  1  2  3  0
  2  3  1  0
  3  4  1  0
  4  5  1  0
  4  6  1  0
  6  7  1  0
  6  8  1  0
  8  9  1  0
  9 10  2  0
 10 11  1  0
 11 12  2  0
 12 13  1  0
 13 14  2  0
 14  9  1  0
  1 15  1  0
  3 16  1  0
  3 17  1  0
  4 18  1  6
  5 19  1  0
  5 20  1  0
  5 21  1  0
  6 22  1  1
  7 23  1  0
  7 24  1  0
  7 25  1  0
  8 26  1  0
  8 27  1  0
 10 28  1  0
 11 29  1  0
 12 30  1  0
 13 31  1  0
 14 32  1  0
M  CHG  1   4   1
M  END
>  <meeko>  (6) 
{"is_sidechain": [false], "free_energy": -6.619, "intermolecular_energy": -8.451, "internal_energy": -0.329}

$$$$
selegiline_out
     RDKit          3D

 32 32  0  0  0  0  0  0  0  0999 V2000
   53.1830  156.2890   26.1250 C   0  0  0  0  0  0  0  0  0  0  0  0
   52.9260  156.6870   27.2290 C   0  0  0  0  0  0  0  0  0  0  0  0
   52.6150  157.1810   28.5820 C   0  0  0  0  0  0  0  0  0  0  0  0
   51.3560  156.6120   29.0910 N   0  0  1  0  0  0  0  0  0  0  0  0
   51.5600  155.2560   29.6060 C   0  0  0  0  0  0  0  0  0  0  0  0
   50.6880  157.5280   30.0530 C   0  0  2  0  0  0  0  0  0  0  0  0
   49.1590  157.3730   30.1140 C   0  0  0  0  0  0  0  0  0  0  0  0
   51.0950  159.0000   29.7700 C   0  0  0  0  0  0  0  0  0  0  0  0
   50.2970  160.0160   30.5610 C   0  0  0  0  0  0  0  0  0  0  0  0
   49.1100  160.5520   30.0430 C   0  0  0  0  0  0  0  0  0  0  0  0
   48.3740  161.4810   30.7790 C   0  0  0  0  0  0  0  0  0  0  0  0
   48.8160  161.8840   32.0380 C   0  0  0  0  0  0  0  0  0  0  0  0
   49.9970  161.3600   32.5600 C   0  0  0  0  0  0  0  0  0  0  0  0
   50.7350  160.4300   31.8260 C   0  0  0  0  0  0  0  0  0  0  0  0
   53.4183  155.9246   25.1141 H   0  0  0  0  0  0  0  0  0  0  0  0
   53.4336  156.9008   29.2612 H   0  0  0  0  0  0  0  0  0  0  0  0
   52.5028  158.2741   28.5317 H   0  0  0  0  0  0  0  0  0  0  0  0
   50.7050  156.5220   28.3120 H   0  0  0  0  0  0  0  0  0  0  0  0
   51.5568  155.2771   30.7058 H   0  0  0  0  0  0  0  0  0  0  0  0
   50.7500  154.6027   29.2495 H   0  0  0  0  0  0  0  0  0  0  0  0
   52.5263  154.8699   29.2495 H   0  0  0  0  0  0  0  0  0  0  0  0
   51.0456  157.2361   31.0514 H   0  0  0  0  0  0  0  0  0  0  0  0
   48.8354  157.3402   31.1648 H   0  0  0  0  0  0  0  0  0  0  0  0
   48.6834  158.2275   29.6104 H   0  0  0  0  0  0  0  0  0  0  0  0
   48.8646  156.4404   29.6104 H   0  0  0  0  0  0  0  0  0  0  0  0
   52.1587  159.1208   30.0230 H   0  0  0  0  0  0  0  0  0  0  0  0
   50.8921  159.1904   28.7058 H   0  0  0  0  0  0  0  0  0  0  0  0
   48.7565  160.2382   29.0498 H   0  0  0  0  0  0  0  0  0  0  0  0
   47.4433  161.8962   30.3650 H   0  0  0  0  0  0  0  0  0  0  0  0
   48.2335  162.6145   32.6186 H   0  0  0  0  0  0  0  0  0  0  0  0
   50.3483  161.6798   33.5521 H   0  0  0  0  0  0  0  0  0  0  0  0
   51.6663  160.0195   32.2433 H   0  0  0  0  0  0  0  0  0  0  0  0
  1  2  3  0
  2  3  1  0
  3  4  1  0
  4  5  1  0
  4  6  1  0
  6  7  1  0
  6  8  1  0
  8  9  1  0
  9 10  2  0
 10 11  1  0
 11 12  2  0
 12 13  1  0
 13 14  2  0
 14  9  1  0
  1 15  1  0
  3 16  1  0
  3 17  1  0
  4 18  1  6
  5 19  1  0
  5 20  1  0
  5 21  1  0
  6 22  1  1
  7 23  1  0
  7 24  1  0
  7 25  1  0
  8 26  1  0
  8 27  1  0
 10 28  1  0
 11 29  1  0
 12 30  1  0
 13 31  1  0
 14 32  1  0
M  CHG  1   4   1
M  END
>  <meeko>  (7) 
{"is_sidechain": [false], "free_energy": -6.61, "intermolecular_energy": -8.614, "internal_energy": -0.155}

$$$$
selegiline_out
     RDKit          3D

 32 32  0  0  0  0  0  0  0  0999 V2000
   49.4270  161.3970   33.5770 C   0  0  0  0  0  0  0  0  0  0  0  0
   49.2450  161.2870   32.3950 C   0  0  0  0  0  0  0  0  0  0  0  0
   49.0160  161.1580   30.9450 C   0  0  0  0  0  0  0  0  0  0  0  0
   50.2370  160.7370   30.2380 N   0  0  1  0  0  0  0  0  0  0  0  0
   51.4370  161.1160   30.9860 C   0  0  0  0  0  0  0  0  0  0  0  0
   50.1880  159.2990   29.8640 C   0  0  2  0  0  0  0  0  0  0  0  0
   49.0740  158.5020   30.5630 C   0  0  0  0  0  0  0  0  0  0  0  0
   51.5760  158.6360   30.0810 C   0  0  0  0  0  0  0  0  0  0  0  0
   51.8050  157.4060   29.2290 C   0  0  0  0  0  0  0  0  0  0  0  0
   51.2020  156.1850   29.5590 C   0  0  0  0  0  0  0  0  0  0  0  0
   51.4100  155.0560   28.7650 C   0  0  0  0  0  0  0  0  0  0  0  0
   52.2210  155.1370   27.6340 C   0  0  0  0  0  0  0  0  0  0  0  0
   52.8270  156.3450   27.2990 C   0  0  0  0  0  0  0  0  0  0  0  0
   52.6220  157.4750   28.0910 C   0  0  0  0  0  0  0  0  0  0  0  0
   49.5937  161.4978   34.6596 H   0  0  0  0  0  0  0  0  0  0  0  0
   48.2283  160.4097   30.7733 H   0  0  0  0  0  0  0  0  0  0  0  0
   48.7153  162.1419   30.5556 H   0  0  0  0  0  0  0  0  0  0  0  0
   50.2860  161.2410   29.3530 H   0  0  0  0  0  0  0  0  0  0  0  0
   51.2323  161.0513   32.0648 H   0  0  0  0  0  0  0  0  0  0  0  0
   52.2607  160.4343   30.7276 H   0  0  0  0  0  0  0  0  0  0  0  0
   51.7197  162.1472   30.7276 H   0  0  0  0  0  0  0  0  0  0  0  0
   49.9325  159.2709   28.7945 H   0  0  0  0  0  0  0  0  0  0  0  0
   49.1918  158.5863   31.6534 H   0  0  0  0  0  0  0  0  0  0  0  0
   48.0941  158.9053   30.2678 H   0  0  0  0  0  0  0  0  0  0  0  0
   49.1393  157.4444   30.2678 H   0  0  0  0  0  0  0  0  0  0  0  0
   52.3547  159.3747   29.8402 H   0  0  0  0  0  0  0  0  0  0  0  0
   51.6151  158.3104   31.1310 H   0  0  0  0  0  0  0  0  0  0  0  0
   50.5604  156.1157   30.4498 H   0  0  0  0  0  0  0  0  0  0  0  0
   50.9334  154.1012   29.0320 H   0  0  0  0  0  0  0  0  0  0  0  0
   52.3820  154.2476   27.0070 H   0  0  0  0  0  0  0  0  0  0  0  0
   53.4688  156.4085   26.4079 H   0  0  0  0  0  0  0  0  0  0  0  0
   53.1042  158.4262   27.8213 H   0  0  0  0  0  0  0  0  0  0  0  0
  1  2  3  0
  2  3  1  0
  3  4  1  0
  4  5  1  0
  4  6  1  0
  6  7  1  0
  6  8  1  0
  8  9  1  0
  9 10  2  0
 10 11  1  0
 11 12  2  0
 12 13  1  0
 13 14  2  0
 14  9  1  0
  1 15  1  0
  3 16  1  0
  3 17  1  0
  4 18  1  6
  5 19  1  0
  5 20  1  0
  5 21  1  0
  6 22  1  6
  7 23  1  0
  7 24  1  0
  7 25  1  0
  8 26  1  0
  8 27  1  0
 10 28  1  0
 11 29  1  0
 12 30  1  0
 13 31  1  0
 14 32  1  0
M  CHG  1   4   1
M  END
>  <meeko>  (8) 
{"is_sidechain": [false], "free_energy": -6.573, "intermolecular_energy": -8.866, "internal_energy": 0.143}

$$$$
selegiline_out
     RDKit          3D

 32 32  0  0  0  0  0  0  0  0999 V2000
   53.0150  155.7100   26.3960 C   0  0  0  0  0  0  0  0  0  0  0  0
   52.4770  155.6210   27.4670 C   0  0  0  0  0  0  0  0  0  0  0  0
   51.8190  155.5040   28.7800 C   0  0  0  0  0  0  0  0  0  0  0  0
   51.9410  156.7470   29.5600 N   0  0  1  0  0  0  0  0  0  0  0  0
   52.6720  157.7720   28.8110 C   0  0  0  0  0  0  0  0  0  0  0  0
   50.6240  157.2030   30.0780 C   0  0  2  0  0  0  0  0  0  0  0  0
   49.4340  156.3420   29.6220 C   0  0  0  0  0  0  0  0  0  0  0  0
   50.3990  158.7020   29.7390 C   0  0  0  0  0  0  0  0  0  0  0  0
   49.6580  159.4670   30.8150 C   0  0  0  0  0  0  0  0  0  0  0  0
   50.3520  160.2880   31.7140 C   0  0  0  0  0  0  0  0  0  0  0  0
   49.6650  160.9980   32.6990 C   0  0  0  0  0  0  0  0  0  0  0  0
   48.2780  160.8940   32.7950 C   0  0  0  0  0  0  0  0  0  0  0  0
   47.5790  160.0780   31.9090 C   0  0  0  0  0  0  0  0  0  0  0  0
   48.2640  159.3670   30.9230 C   0  0  0  0  0  0  0  0  0  0  0  0
   53.5074  155.7915   25.4157 H   0  0  0  0  0  0  0  0  0  0  0  0
   50.7526  155.2821   28.6264 H   0  0  0  0  0  0  0  0  0  0  0  0
   52.3115  154.6960   29.3409 H   0  0  0  0  0  0  0  0  0  0  0  0
   52.5010  156.5520   30.3900 H   0  0  0  0  0  0  0  0  0  0  0  0
   53.1628  158.4603   29.5148 H   0  0  0  0  0  0  0  0  0  0  0  0
   53.4323  157.2912   28.1779 H   0  0  0  0  0  0  0  0  0  0  0  0
   51.9698  158.3342   28.1779 H   0  0  0  0  0  0  0  0  0  0  0  0
   50.6656  157.0783   31.1701 H   0  0  0  0  0  0  0  0  0  0  0  0
   48.9012  155.9565   30.5037 H   0  0  0  0  0  0  0  0  0  0  0  0
   48.7484  156.9545   29.0181 H   0  0  0  0  0  0  0  0  0  0  0  0
   49.8013  155.4992   29.0181 H   0  0  0  0  0  0  0  0  0  0  0  0
   51.3809  159.1752   29.5907 H   0  0  0  0  0  0  0  0  0  0  0  0
   49.7745  158.7357   28.8341 H   0  0  0  0  0  0  0  0  0  0  0  0
   51.4464  160.3732   31.6425 H   0  0  0  0  0  0  0  0  0  0  0  0
   50.2179  161.6402   33.4003 H   0  0  0  0  0  0  0  0  0  0  0  0
   47.7362  161.4560   33.5700 H   0  0  0  0  0  0  0  0  0  0  0  0
   46.4850  159.9938   31.9866 H   0  0  0  0  0  0  0  0  0  0  0  0
   47.7066  158.7240   30.2260 H   0  0  0  0  0  0  0  0  0  0  0  0
  1  2  3  0
  2  3  1  0
  3  4  1  0
  4  5  1  0
  4  6  1  0
  6  7  1  0
  6  8  1  0
  8  9  1  0
  9 10  2  0
 10 11  1  0
 11 12  2  0
 12 13  1  0
 13 14  2  0
 14  9  1  0
  1 15  1  0
  3 16  1  0
  3 17  1  0
  4 18  1  1
  5 19  1  0
  5 20  1  0
  5 21  1  0
  6 22  1  1
  7 23  1  0
  7 24  1  0
  7 25  1  0
  8 26  1  0
  8 27  1  0
 10 28  1  0
 11 29  1  0
 12 30  1  0
 13 31  1  0
 14 32  1  0
M  CHG  1   4   1
M  END
>  <meeko>  (9) 
{"is_sidechain": [false], "free_energy": -6.335, "intermolecular_energy": -8.402, "internal_energy": -0.028}

$$$$
