VP7_out
     RDKit          3D

 45 48  0  0  0  0  0  0  0  0999 V2000
   50.3890  161.0630   29.6470 C   0  0  0  0  0  0  0  0  0  0  0  0
   51.4590  160.3110   30.4360 C   0  0  0  0  0  0  0  0  0  0  0  0
   51.2160  160.4440   31.9380 C   0  0  0  0  0  0  0  0  0  0  0  0
   52.7250  160.9030   30.1490 O   0  0  0  0  0  0  0  0  0  0  0  0
   51.4920  158.8940   30.0410 C   0  0  0  0  0  0  0  0  0  0  0  0
   51.5180  157.7390   29.7100 C   0  0  0  0  0  0  0  0  0  0  0  0
   51.5560  156.3650   29.3130 C   0  0  0  0  0  0  0  0  0  0  0  0
   50.8590  155.4110   30.0510 C   0  0  0  0  0  0  0  0  0  0  0  0
   50.8860  154.0620   29.6850 C   0  0  0  0  0  0  0  0  0  0  0  0
   51.6350  153.7100   28.5550 C   0  0  0  0  0  0  0  0  0  0  0  0
   51.8380  152.4810   27.9870 N   0  0  0  0  0  0  0  0  0  0  0  0
   52.6600  152.5650   26.8850 C   0  0  0  0  0  0  0  0  0  0  0  0
   52.9860  153.9080   26.7100 C   0  0  0  0  0  0  0  0  0  0  0  0
   52.3400  154.6310   27.7870 C   0  0  0  0  0  0  0  0  0  0  0  0
   52.2970  155.9880   28.1870 C   0  0  0  0  0  0  0  0  0  0  0  0
   53.8210  154.4730   25.6390 C   0  0  0  0  0  0  0  0  0  0  0  0
   53.6040  155.7900   25.4170 N   0  0  0  0  0  0  0  0  0  0  0  0
   54.3420  156.4030   24.4960 C   0  0  0  0  0  0  0  0  0  0  0  0
   54.0960  157.7420   24.2690 N   0  0  0  0  0  0  0  0  0  0  0  0
   55.2640  155.8090   23.7450 N   0  0  0  0  0  0  0  0  0  0  0  0
   55.4550  154.5000   23.9760 C   0  0  0  0  0  0  0  0  0  0  0  0
   54.7540  153.7560   24.9110 C   0  0  0  0  0  0  0  0  0  0  0  0
   55.0420  152.2950   25.0580 C   0  0  0  0  0  0  0  0  0  0  0  0
   53.7830  151.4570   24.8860 C   0  0  0  0  0  0  0  0  0  0  0  0
   53.0120  151.2950   26.1840 C   0  0  0  0  0  0  0  0  0  0  0  0
   49.6938  161.5516   30.3456 H   0  0  0  0  0  0  0  0  0  0  0  0
   50.8677  161.8243   29.0136 H   0  0  0  0  0  0  0  0  0  0  0  0
   49.8349  160.3547   29.0136 H   0  0  0  0  0  0  0  0  0  0  0  0
   52.0523  159.9863   32.4867 H   0  0  0  0  0  0  0  0  0  0  0  0
   51.1415  161.5086   32.2045 H   0  0  0  0  0  0  0  0  0  0  0  0
   50.2791  159.9329   32.2045 H   0  0  0  0  0  0  0  0  0  0  0  0
   52.6580  161.4330   29.3380 H   0  0  0  0  0  0  0  0  0  0  0  0
   50.2801  155.7230   30.9328 H   0  0  0  0  0  0  0  0  0  0  0  0
   50.3384  153.3038   30.2640 H   0  0  0  0  0  0  0  0  0  0  0  0
   51.4460  151.6430   28.3240 H   0  0  0  0  0  0  0  0  0  0  0  0
   52.8469  156.7476   27.6120 H   0  0  0  0  0  0  0  0  0  0  0  0
   54.7870  158.3050   23.8500 H   0  0  0  0  0  0  0  0  0  0  0  0
   53.2300  158.1330   24.5260 H   0  0  0  0  0  0  0  0  0  0  0  0
   56.2218  153.9822   23.3811 H   0  0  0  0  0  0  0  0  0  0  0  0
   55.7764  151.9971   24.2951 H   0  0  0  0  0  0  0  0  0  0  0  0
   55.4358  152.1215   26.0703 H   0  0  0  0  0  0  0  0  0  0  0  0
   53.1314  151.9464   24.1471 H   0  0  0  0  0  0  0  0  0  0  0  0
   54.0908  150.4551   24.5521 H   0  0  0  0  0  0  0  0  0  0  0  0
   52.0766  150.7620   25.9583 H   0  0  0  0  0  0  0  0  0  0  0  0
   53.6801  150.7487   26.8660 H   0  0  0  0  0  0  0  0  0  0  0  0
  1  2  1  0
  2  3  1  0
  2  4  1  0
  2  5  1  0
  5  6  3  0
  6  7  1  0
  7  8  2  0
  8  9  1  0
  9 10  2  0
 10 11  1  0
 11 12  1  0
 12 13  2  0
 13 14  1  0
 14 15  2  0
 13 16  1  0
 16 17  2  0
 17 18  1  0
 18 19  1  0
 18 20  2  0
 20 21  1  0
 21 22  2  0
 22 23  1  0
 23 24  1  0
 24 25  1  0
 15  7  1  0
 22 16  1  0
 14 10  1  0
 25 12  1  0
  1 26  1  0
  1 27  1  0
  1 28  1  0
  3 29  1  0
  3 30  1  0
  3 31  1  0
  4 32  1  0
  8 33  1  0
  9 34  1  0
 11 35  1  0
 15 36  1  0
 19 37  1  0
 19 38  1  0
 21 39  1  0
 23 40  1  0
 23 41  1  0
 24 42  1  0
 24 43  1  0
 25 44  1  0
 25 45  1  0
M  END
>  <meeko>  (1) 
{"is_sidechain": [false], "free_energy": -6.066, "intermolecular_energy": -8.194, "internal_energy": 0.7}

$$$$
VP7_out
     RDKit          3D

 45 48  0  0  0  0  0  0  0  0999 V2000
   52.9920  154.8000   24.4190 C   0  0  0  0  0  0  0  0  0  0  0  0
   53.8240  155.3490   25.5770 C   0  0  0  0  0  0  0  0  0  0  0  0
   54.7880  156.4270   25.0860 C   0  0  0  0  0  0  0  0  0  0  0  0
   54.6060  154.2810   26.1110 O   0  0  0  0  0  0  0  0  0  0  0  0
   52.9510  155.8790   26.6360 C   0  0  0  0  0  0  0  0  0  0  0  0
   52.2320  156.3040   27.4990 C   0  0  0  0  0  0  0  0  0  0  0  0
   51.3770  156.8180   28.5260 C   0  0  0  0  0  0  0  0  0  0  0  0
   50.2370  156.1100   28.8970 C   0  0  0  0  0  0  0  0  0  0  0  0
   49.3850  156.5940   29.8940 C   0  0  0  0  0  0  0  0  0  0  0  0
   49.7210  157.8110   30.5010 C   0  0  0  0  0  0  0  0  0  0  0  0
   49.0710  158.5080   31.4830 N   0  0  0  0  0  0  0  0  0  0  0  0
   49.7300  159.6780   31.7900 C   0  0  0  0  0  0  0  0  0  0  0  0
   50.8720  159.7340   30.9950 C   0  0  0  0  0  0  0  0  0  0  0  0
   50.8540  158.5470   30.1660 C   0  0  0  0  0  0  0  0  0  0  0  0
   51.6930  158.0310   29.1490 C   0  0  0  0  0  0  0  0  0  0  0  0
   51.8930  160.7930   31.0040 C   0  0  0  0  0  0  0  0  0  0  0  0
   53.0900  160.4000   30.5080 N   0  0  0  0  0  0  0  0  0  0  0  0
   54.0670  161.2990   30.4340 C   0  0  0  0  0  0  0  0  0  0  0  0
   55.2860  160.8780   29.9430 N   0  0  0  0  0  0  0  0  0  0  0  0
   53.9690  162.5590   30.8440 N   0  0  0  0  0  0  0  0  0  0  0  0
   52.7760  162.9240   31.3420 C   0  0  0  0  0  0  0  0  0  0  0  0
   51.6840  162.0820   31.4630 C   0  0  0  0  0  0  0  0  0  0  0  0
   50.4120  162.6000   32.0590 C   0  0  0  0  0  0  0  0  0  0  0  0
   49.9650  161.7550   33.2470 C   0  0  0  0  0  0  0  0  0  0  0  0
   49.1150  160.5720   32.8150 C   0  0  0  0  0  0  0  0  0  0  0  0
   52.1363  154.2354   24.8177 H   0  0  0  0  0  0  0  0  0  0  0  0
   52.6257  155.6344   23.8028 H   0  0  0  0  0  0  0  0  0  0  0  0
   53.6150  154.1351   23.8028 H   0  0  0  0  0  0  0  0  0  0  0  0
   55.2417  156.9343   25.9502 H   0  0  0  0  0  0  0  0  0  0  0  0
   55.5778  155.9629   24.4771 H   0  0  0  0  0  0  0  0  0  0  0  0
   54.2388  157.1602   24.4771 H   0  0  0  0  0  0  0  0  0  0  0  0
   54.0510  153.4900   26.2060 H   0  0  0  0  0  0  0  0  0  0  0  0
   50.0037  155.1573   28.3991 H   0  0  0  0  0  0  0  0  0  0  0  0
   48.4830  156.0390   30.1913 H   0  0  0  0  0  0  0  0  0  0  0  0
   48.2370  158.2120   31.9150 H   0  0  0  0  0  0  0  0  0  0  0  0
   52.5948  158.5843   28.8479 H   0  0  0  0  0  0  0  0  0  0  0  0
   55.7780  160.1570   30.3990 H   0  0  0  0  0  0  0  0  0  0  0  0
   55.6630  161.2990   29.1370 H   0  0  0  0  0  0  0  0  0  0  0  0
   52.6586  163.9651   31.6772 H   0  0  0  0  0  0  0  0  0  0  0  0
   50.5711  163.6348   32.3965 H   0  0  0  0  0  0  0  0  0  0  0  0
   49.6274  162.5546   31.2893 H   0  0  0  0  0  0  0  0  0  0  0  0
   50.8561  161.3796   33.7714 H   0  0  0  0  0  0  0  0  0  0  0  0
   49.3545  162.3901   33.9057 H   0  0  0  0  0  0  0  0  0  0  0  0
   48.8993  159.9661   33.7074 H   0  0  0  0  0  0  0  0  0  0  0  0
   48.2190  161.0009   32.3425 H   0  0  0  0  0  0  0  0  0  0  0  0
  1  2  1  0
  2  3  1  0
  2  4  1  0
  2  5  1  0
  5  6  3  0
  6  7  1  0
  7  8  2  0
  8  9  1  0
  9 10  2  0
 10 11  1  0
 11 12  1  0
 12 13  2  0
 13 14  1  0
 14 15  2  0
 13 16  1  0
 16 17  2  0
 17 18  1  0
 18 19  1  0
 18 20  2  0
 20 21  1  0
 21 22  2  0
 22 23  1  0
 23 24  1  0
 24 25  1  0
 15  7  1  0
 22 16  1  0
 14 10  1  0
 25 12  1  0
  1 26  1  0
  1 27  1  0
  1 28  1  0
  3 29  1  0
  3 30  1  0
  3 31  1  0
  4 32  1  0
  8 33  1  0
  9 34  1  0
 11 35  1  0
 15 36  1  0
 19 37  1  0
 19 38  1  0
 21 39  1  0
 23 40  1  0
 23 41  1  0
 24 42  1  0
 24 43  1  0
 25 44  1  0
 25 45  1  0
M  END
>  <meeko>  (2) 
{"is_sidechain": [false], "free_energy": -3.605, "intermolecular_energy": -4.872, "internal_energy": 0.703}

$$$$
