harmine_out
     RDKit          3D

 28 30  0  0  0  0  0  0  0  0999 V2000
  183.4250   22.2420   45.7820 C   0  0  0  0  0  0  0  0  0  0  0  0
  182.6130   22.0770   46.9370 O   0  0  0  0  0  0  0  0  0  0  0  0
  181.4330   21.4000   46.7750 C   0  0  0  0  0  0  0  0  0  0  0  0
  181.1660   20.4530   45.7880 C   0  0  0  0  0  0  0  0  0  0  0  0
  179.9160   19.8200   45.7180 C   0  0  0  0  0  0  0  0  0  0  0  0
  178.9150   20.1440   46.6560 C   0  0  0  0  0  0  0  0  0  0  0  0
  179.2070   21.0920   47.6330 C   0  0  0  0  0  0  0  0  0  0  0  0
  180.4490   21.7320   47.7170 C   0  0  0  0  0  0  0  0  0  0  0  0
  178.0850   21.2260   48.4140 N   0  0  0  0  0  0  0  0  0  0  0  0
  177.0760   20.3980   47.9780 C   0  0  0  0  0  0  0  0  0  0  0  0
  175.7780   20.2110   48.4680 C   0  0  0  0  0  0  0  0  0  0  0  0
  175.2110   20.9340   49.6490 C   0  0  0  0  0  0  0  0  0  0  0  0
  174.9830   19.3120   47.8280 N   0  0  0  0  0  0  0  0  0  0  0  0
  175.4580   18.6390   46.7580 C   0  0  0  0  0  0  0  0  0  0  0  0
  176.7300   18.7850   46.2320 C   0  0  0  0  0  0  0  0  0  0  0  0
  177.5710   19.7050   46.8730 C   0  0  0  0  0  0  0  0  0  0  0  0
  184.4603   22.4524   46.0886 H   0  0  0  0  0  0  0  0  0  0  0  0
  183.4004   21.3205   45.1818 H   0  0  0  0  0  0  0  0  0  0  0  0
  183.0427   23.0808   45.1818 H   0  0  0  0  0  0  0  0  0  0  0  0
  181.9453   20.1986   45.0545 H   0  0  0  0  0  0  0  0  0  0  0  0
  179.7179   19.0739   44.9344 H   0  0  0  0  0  0  0  0  0  0  0  0
  180.6480   22.4764   48.5020 H   0  0  0  0  0  0  0  0  0  0  0  0
  178.0120   21.8350   49.1840 H   0  0  0  0  0  0  0  0  0  0  0  0
  175.5772   20.4671   50.5752 H   0  0  0  0  0  0  0  0  0  0  0  0
  175.5262   21.9875   49.6200 H   0  0  0  0  0  0  0  0  0  0  0  0
  174.1128   20.8790   49.6200 H   0  0  0  0  0  0  0  0  0  0  0  0
  174.7838   17.9212   46.2678 H   0  0  0  0  0  0  0  0  0  0  0  0
  177.0635   18.2089   45.3563 H   0  0  0  0  0  0  0  0  0  0  0  0
  1  2  1  0
  2  3  1  0
  3  4  2  0
  4  5  1  0
  5  6  2  0
  6  7  1  0
  7  8  2  0
  7  9  1  0
  9 10  1  0
 10 11  2  0
 11 12  1  0
 11 13  1  0
 13 14  2  0
 14 15  1  0
 15 16  2  0
  8  3  1  0
 16 10  1  0
 16  6  1  0
  1 17  1  0
  1 18  1  0
  1 19  1  0
  4 20  1  0
  5 21  1  0
  8 22  1  0
  9 23  1  0
 12 24  1  0
 12 25  1  0
 12 26  1  0
 14 27  1  0
 15 28  1  0
M  END
>  <meeko>  (1) 
{"is_sidechain": [false], "free_energy": -7.447, "intermolecular_energy": -7.882, "internal_energy": -0.041}

$$$$
harmine_out
     RDKit          3D

 28 30  0  0  0  0  0  0  0  0999 V2000
  181.2110   17.0530   43.4470 C   0  0  0  0  0  0  0  0  0  0  0  0
  180.8200   17.1060   44.8130 O   0  0  0  0  0  0  0  0  0  0  0  0
  180.4440   18.3290   45.3040 C   0  0  0  0  0  0  0  0  0  0  0  0
  181.2280   19.4810   45.3090 C   0  0  0  0  0  0  0  0  0  0  0  0
  180.7360   20.6830   45.8400 C   0  0  0  0  0  0  0  0  0  0  0  0
  179.4330   20.7290   46.3770 C   0  0  0  0  0  0  0  0  0  0  0  0
  178.6700   19.5640   46.3590 C   0  0  0  0  0  0  0  0  0  0  0  0
  179.1460   18.3580   45.8320 C   0  0  0  0  0  0  0  0  0  0  0  0
  177.4570   19.8670   46.9300 N   0  0  0  0  0  0  0  0  0  0  0  0
  177.4080   21.1870   47.3160 C   0  0  0  0  0  0  0  0  0  0  0  0
  176.3830   21.9160   47.9300 C   0  0  0  0  0  0  0  0  0  0  0  0
  175.0520   21.3460   48.3070 C   0  0  0  0  0  0  0  0  0  0  0  0
  176.6140   23.2280   48.2020 N   0  0  0  0  0  0  0  0  0  0  0  0
  177.8030   23.7810   47.8780 C   0  0  0  0  0  0  0  0  0  0  0  0
  178.8490   23.1080   47.2710 C   0  0  0  0  0  0  0  0  0  0  0  0
  178.6370   21.7530   46.9800 C   0  0  0  0  0  0  0  0  0  0  0  0
  182.2992   16.9055   43.3825 H   0  0  0  0  0  0  0  0  0  0  0  0
  180.6975   16.2162   42.9508 H   0  0  0  0  0  0  0  0  0  0  0  0
  180.9388   17.9963   42.9508 H   0  0  0  0  0  0  0  0  0  0  0  0
  182.2451   19.4477   44.8915 H   0  0  0  0  0  0  0  0  0  0  0  0
  181.3643   21.5859   45.8374 H   0  0  0  0  0  0  0  0  0  0  0  0
  178.5171   17.4555   45.8322 H   0  0  0  0  0  0  0  0  0  0  0  0
  176.7220   19.2240   47.0470 H   0  0  0  0  0  0  0  0  0  0  0  0
  174.9660   21.3092   49.4030 H   0  0  0  0  0  0  0  0  0  0  0  0
  174.2521   21.9805   47.8976 H   0  0  0  0  0  0  0  0  0  0  0  0
  174.9593   20.3293   47.8976 H   0  0  0  0  0  0  0  0  0  0  0  0
  177.9509   24.8451   48.1141 H   0  0  0  0  0  0  0  0  0  0  0  0
  179.7974   23.6101   47.0294 H   0  0  0  0  0  0  0  0  0  0  0  0
  1  2  1  0
  2  3  1  0
  3  4  2  0
  4  5  1  0
  5  6  2  0
  6  7  1  0
  7  8  2  0
  7  9  1  0
  9 10  1  0
 10 11  2  0
 11 12  1  0
 11 13  1  0
 13 14  2  0
 14 15  1  0
 15 16  2  0
  8  3  1  0
 16 10  1  0
 16  6  1  0
  1 17  1  0
  1 18  1  0
  1 19  1  0
  4 20  1  0
  5 21  1  0
  8 22  1  0
  9 23  1  0
 12 24  1  0
 12 25  1  0
 12 26  1  0
 14 27  1  0
 15 28  1  0
M  END
>  <meeko>  (2) 
{"is_sidechain": [false], "free_energy": -7.096, "intermolecular_energy": -7.516, "internal_energy": -0.036}

$$$$
harmine_out
     RDKit          3D

 28 30  0  0  0  0  0  0  0  0999 V2000
  182.9530   21.8890   46.0170 C   0  0  0  0  0  0  0  0  0  0  0  0
  182.3860   20.6190   45.7240 O   0  0  0  0  0  0  0  0  0  0  0  0
  181.0770   20.4270   46.0790 C   0  0  0  0  0  0  0  0  0  0  0  0
  180.3210   19.2850   45.8190 C   0  0  0  0  0  0  0  0  0  0  0  0
  178.9830   19.1980   46.2310 C   0  0  0  0  0  0  0  0  0  0  0  0
  178.3920   20.2780   46.9170 C   0  0  0  0  0  0  0  0  0  0  0  0
  179.1680   21.4070   47.1660 C   0  0  0  0  0  0  0  0  0  0  0  0
  180.5040   21.5090   46.7620 C   0  0  0  0  0  0  0  0  0  0  0  0
  178.3730   22.3040   47.8390 N   0  0  0  0  0  0  0  0  0  0  0  0
  177.1100   21.7950   48.0360 C   0  0  0  0  0  0  0  0  0  0  0  0
  175.9930   22.3560   48.6660 C   0  0  0  0  0  0  0  0  0  0  0  0
  175.9700   23.7160   49.2880 C   0  0  0  0  0  0  0  0  0  0  0  0
  174.8540   21.6140   48.7140 N   0  0  0  0  0  0  0  0  0  0  0  0
  174.8330   20.3800   48.1640 C   0  0  0  0  0  0  0  0  0  0  0  0
  175.9070   19.7790   47.5300 C   0  0  0  0  0  0  0  0  0  0  0  0
  177.0930   20.5220   47.4660 C   0  0  0  0  0  0  0  0  0  0  0  0
  183.0121   22.0214   47.1074 H   0  0  0  0  0  0  0  0  0  0  0  0
  183.9630   21.9481   45.5852 H   0  0  0  0  0  0  0  0  0  0  0  0
  182.3227   22.6804   45.5852 H   0  0  0  0  0  0  0  0  0  0  0  0
  180.7799   18.4408   45.2836 H   0  0  0  0  0  0  0  0  0  0  0  0
  178.3977   18.2910   46.0196 H   0  0  0  0  0  0  0  0  0  0  0  0
  181.0898   22.4153   46.9750 H   0  0  0  0  0  0  0  0  0  0  0  0
  178.6690   23.1930   48.1410 H   0  0  0  0  0  0  0  0  0  0  0  0
  175.9717   23.6182   50.3836 H   0  0  0  0  0  0  0  0  0  0  0  0
  176.8587   24.2802   48.9689 H   0  0  0  0  0  0  0  0  0  0  0  0
  175.0627   24.2498   48.9689 H   0  0  0  0  0  0  0  0  0  0  0  0
  173.8935   19.8111   48.2244 H   0  0  0  0  0  0  0  0  0  0  0  0
  175.8329   18.7698   47.0986 H   0  0  0  0  0  0  0  0  0  0  0  0
  1  2  1  0
  2  3  1  0
  3  4  2  0
  4  5  1  0
  5  6  2  0
  6  7  1  0
  7  8  2  0
  7  9  1  0
  9 10  1  0
 10 11  2  0
 11 12  1  0
 11 13  1  0
 13 14  2  0
 14 15  1  0
 15 16  2  0
  8  3  1  0
 16 10  1  0
 16  6  1  0
  1 17  1  0
  1 18  1  0
  1 19  1  0
  4 20  1  0
  5 21  1  0
  8 22  1  0
  9 23  1  0
 12 24  1  0
 12 25  1  0
 12 26  1  0
 14 27  1  0
 15 28  1  0
M  END
>  <meeko>  (3) 
{"is_sidechain": [false], "free_energy": -6.931, "intermolecular_energy": -7.316, "internal_energy": -0.061}

$$$$
harmine_out
     RDKit          3D

 28 30  0  0  0  0  0  0  0  0999 V2000
  175.4310   23.7570   49.4760 C   0  0  0  0  0  0  0  0  0  0  0  0
  175.1960   22.3560   49.5420 O   0  0  0  0  0  0  0  0  0  0  0  0
  176.0130   21.5540   48.7890 C   0  0  0  0  0  0  0  0  0  0  0  0
  175.6650   20.3190   48.2440 C   0  0  0  0  0  0  0  0  0  0  0  0
  176.5860   19.5820   47.4860 C   0  0  0  0  0  0  0  0  0  0  0  0
  177.8820   20.0930   47.2710 C   0  0  0  0  0  0  0  0  0  0  0  0
  178.2050   21.3290   47.8250 C   0  0  0  0  0  0  0  0  0  0  0  0
  177.2960   22.0770   48.5830 C   0  0  0  0  0  0  0  0  0  0  0  0
  179.5060   21.6020   47.4750 N   0  0  0  0  0  0  0  0  0  0  0  0
  180.0370   20.5860   46.7140 C   0  0  0  0  0  0  0  0  0  0  0  0
  181.3090   20.4440   46.1490 C   0  0  0  0  0  0  0  0  0  0  0  0
  182.4080   21.4510   46.2800 C   0  0  0  0  0  0  0  0  0  0  0  0
  181.5620   19.3150   45.4330 N   0  0  0  0  0  0  0  0  0  0  0  0
  180.5980   18.3810   45.2900 C   0  0  0  0  0  0  0  0  0  0  0  0
  179.3250   18.4700   45.8270 C   0  0  0  0  0  0  0  0  0  0  0  0
  179.0370   19.6240   46.5690 C   0  0  0  0  0  0  0  0  0  0  0  0
  175.4996   24.1657   50.4950 H   0  0  0  0  0  0  0  0  0  0  0  0
  176.3734   23.9459   48.9410 H   0  0  0  0  0  0  0  0  0  0  0  0
  174.6018   24.2431   48.9410 H   0  0  0  0  0  0  0  0  0  0  0  0
  174.6546   19.9174   48.4108 H   0  0  0  0  0  0  0  0  0  0  0  0
  176.2984   18.6091   47.0609 H   0  0  0  0  0  0  0  0  0  0  0  0
  177.5823   23.0511   49.0062 H   0  0  0  0  0  0  0  0  0  0  0  0
  179.9930   22.4160   47.7360 H   0  0  0  0  0  0  0  0  0  0  0  0
  182.6104   21.6364   47.3452 H   0  0  0  0  0  0  0  0  0  0  0  0
  183.3175   21.0662   45.7955 H   0  0  0  0  0  0  0  0  0  0  0  0
  182.1040   22.3906   45.7955 H   0  0  0  0  0  0  0  0  0  0  0  0
  180.8419   17.4829   44.7035 H   0  0  0  0  0  0  0  0  0  0  0  0
  178.5781   17.6761   45.6791 H   0  0  0  0  0  0  0  0  0  0  0  0
  1  2  1  0
  2  3  1  0
  3  4  2  0
  4  5  1  0
  5  6  2  0
  6  7  1  0
  7  8  2  0
  7  9  1  0
  9 10  1  0
 10 11  2  0
 11 12  1  0
 11 13  1  0
 13 14  2  0
 14 15  1  0
 15 16  2  0
  8  3  1  0
 16 10  1  0
 16  6  1  0
  1 17  1  0
  1 18  1  0
  1 19  1  0
  4 20  1  0
  5 21  1  0
  8 22  1  0
  9 23  1  0
 12 24  1  0
 12 25  1  0
 12 26  1  0
 14 27  1  0
 15 28  1  0
M  END
>  <meeko>  (4) 
{"is_sidechain": [false], "free_energy": -6.764, "intermolecular_energy": -7.145, "internal_energy": -0.055}

$$$$
harmine_out
     RDKit          3D

 28 30  0  0  0  0  0  0  0  0999 V2000
  183.3730   21.9290   45.5210 C   0  0  0  0  0  0  0  0  0  0  0  0
  182.5610   20.7660   45.6120 O   0  0  0  0  0  0  0  0  0  0  0  0
  181.3590   20.8960   46.2570 C   0  0  0  0  0  0  0  0  0  0  0  0
  181.0390   21.8770   47.1940 C   0  0  0  0  0  0  0  0  0  0  0  0
  179.7710   21.9140   47.7940 C   0  0  0  0  0  0  0  0  0  0  0  0
  178.8060   20.9470   47.4470 C   0  0  0  0  0  0  0  0  0  0  0  0
  179.1500   19.9780   46.5080 C   0  0  0  0  0  0  0  0  0  0  0  0
  180.4110   19.9280   45.9000 C   0  0  0  0  0  0  0  0  0  0  0  0
  178.0530   19.1660   46.3440 N   0  0  0  0  0  0  0  0  0  0  0  0
  177.0110   19.5760   47.1440 C   0  0  0  0  0  0  0  0  0  0  0  0
  175.7230   19.0500   47.2980 C   0  0  0  0  0  0  0  0  0  0  0  0
  175.2070   17.8540   46.5620 C   0  0  0  0  0  0  0  0  0  0  0  0
  174.8870   19.6680   48.1740 N   0  0  0  0  0  0  0  0  0  0  0  0
  175.3140   20.7520   48.8590 C   0  0  0  0  0  0  0  0  0  0  0  0
  176.5750   21.3120   48.7450 C   0  0  0  0  0  0  0  0  0  0  0  0
  177.4570   20.6940   47.8480 C   0  0  0  0  0  0  0  0  0  0  0  0
  183.6205   22.2835   46.5325 H   0  0  0  0  0  0  0  0  0  0  0  0
  184.2999   21.6876   44.9800 H   0  0  0  0  0  0  0  0  0  0  0  0
  182.8271   22.7160   44.9800 H   0  0  0  0  0  0  0  0  0  0  0  0
  181.7906   22.6324   47.4668 H   0  0  0  0  0  0  0  0  0  0  0  0
  179.5313   22.6940   48.5317 H   0  0  0  0  0  0  0  0  0  0  0  0
  180.6508   19.1489   45.1614 H   0  0  0  0  0  0  0  0  0  0  0  0
  178.0180   18.3930   45.7360 H   0  0  0  0  0  0  0  0  0  0  0  0
  174.8784   17.0924   47.2845 H   0  0  0  0  0  0  0  0  0  0  0  0
  174.3569   18.1509   45.9302 H   0  0  0  0  0  0  0  0  0  0  0  0
  176.0063   17.4393   45.9302 H   0  0  0  0  0  0  0  0  0  0  0  0
  174.6080   21.2238   49.5582 H   0  0  0  0  0  0  0  0  0  0  0  0
  176.8696   22.1967   49.3285 H   0  0  0  0  0  0  0  0  0  0  0  0
  1  2  1  0
  2  3  1  0
  3  4  2  0
  4  5  1  0
  5  6  2  0
  6  7  1  0
  7  8  2  0
  7  9  1  0
  9 10  1  0
 10 11  2  0
 11 12  1  0
 11 13  1  0
 13 14  2  0
 14 15  1  0
 15 16  2  0
  8  3  1  0
 16 10  1  0
 16  6  1  0
  1 17  1  0
  1 18  1  0
  1 19  1  0
  4 20  1  0
  5 21  1  0
  8 22  1  0
  9 23  1  0
 12 24  1  0
 12 25  1  0
 12 26  1  0
 14 27  1  0
 15 28  1  0
M  END
>  <meeko>  (5) 
{"is_sidechain": [false], "free_energy": -6.591, "intermolecular_energy": -6.977, "internal_energy": -0.041}

$$$$
harmine_out
     RDKit          3D

 28 30  0  0  0  0  0  0  0  0999 V2000
  175.1900   23.7770   49.4630 C   0  0  0  0  0  0  0  0  0  0  0  0
  175.3480   22.5160   48.8250 O   0  0  0  0  0  0  0  0  0  0  0  0
  176.5720   22.2510   48.2700 C   0  0  0  0  0  0  0  0  0  0  0  0
  177.6360   23.1450   48.1770 C   0  0  0  0  0  0  0  0  0  0  0  0
  178.8490   22.7620   47.5850 C   0  0  0  0  0  0  0  0  0  0  0  0
  178.9960   21.4560   47.0760 C   0  0  0  0  0  0  0  0  0  0  0  0
  177.9180   20.5800   47.1810 C   0  0  0  0  0  0  0  0  0  0  0  0
  176.7020   20.9480   47.7700 C   0  0  0  0  0  0  0  0  0  0  0  0
  178.3090   19.3880   46.6210 N   0  0  0  0  0  0  0  0  0  0  0  0
  179.6020   19.4600   46.1570 C   0  0  0  0  0  0  0  0  0  0  0  0
  180.3940   18.4970   45.5220 C   0  0  0  0  0  0  0  0  0  0  0  0
  179.9420   17.1050   45.2110 C   0  0  0  0  0  0  0  0  0  0  0  0
  181.6590   18.8500   45.1660 N   0  0  0  0  0  0  0  0  0  0  0  0
  182.1060   20.0970   45.4290 C   0  0  0  0  0  0  0  0  0  0  0  0
  181.3660   21.0880   46.0520 C   0  0  0  0  0  0  0  0  0  0  0  0
  180.0590   20.7490   46.4300 C   0  0  0  0  0  0  0  0  0  0  0  0
  175.2071   23.6405   50.5544 H   0  0  0  0  0  0  0  0  0  0  0  0
  176.0115   24.4447   49.1641 H   0  0  0  0  0  0  0  0  0  0  0  0
  174.2292   24.2213   49.1641 H   0  0  0  0  0  0  0  0  0  0  0  0
  177.5238   24.1651   48.5730 H   0  0  0  0  0  0  0  0  0  0  0  0
  179.6815   23.4778   47.5184 H   0  0  0  0  0  0  0  0  0  0  0  0
  175.8695   20.2323   47.8386 H   0  0  0  0  0  0  0  0  0  0  0  0
  177.7380   18.5880   46.5590 H   0  0  0  0  0  0  0  0  0  0  0  0
  179.7647   16.5588   46.1492 H   0  0  0  0  0  0  0  0  0  0  0  0
  179.0103   17.1438   44.6276 H   0  0  0  0  0  0  0  0  0  0  0  0
  180.7188   16.5890   44.6276 H   0  0  0  0  0  0  0  0  0  0  0  0
  183.1342   20.3438   45.1259 H   0  0  0  0  0  0  0  0  0  0  0  0
  181.7818   22.0888   46.2405 H   0  0  0  0  0  0  0  0  0  0  0  0
  1  2  1  0
  2  3  1  0
  3  4  2  0
  4  5  1  0
  5  6  2  0
  6  7  1  0
  7  8  2  0
  7  9  1  0
  9 10  1  0
 10 11  2  0
 11 12  1  0
 11 13  1  0
 13 14  2  0
 14 15  1  0
 15 16  2  0
  8  3  1  0
 16 10  1  0
 16  6  1  0
  1 17  1  0
  1 18  1  0
  1 19  1  0
  4 20  1  0
  5 21  1  0
  8 22  1  0
  9 23  1  0
 12 24  1  0
 12 25  1  0
 12 26  1  0
 14 27  1  0
 15 28  1  0
M  END
>  <meeko>  (6) 
{"is_sidechain": [false], "free_energy": -6.28, "intermolecular_energy": -6.646, "internal_energy": -0.042}

$$$$
harmine_out
     RDKit          3D

 28 30  0  0  0  0  0  0  0  0999 V2000
  181.8080   17.9960   44.0410 C   0  0  0  0  0  0  0  0  0  0  0  0
  181.6690   19.0310   45.0050 O   0  0  0  0  0  0  0  0  0  0  0  0
  180.4320   19.1910   45.5720 C   0  0  0  0  0  0  0  0  0  0  0  0
  179.4350   18.2180   45.6400 C   0  0  0  0  0  0  0  0  0  0  0  0
  178.2010   18.4950   46.2470 C   0  0  0  0  0  0  0  0  0  0  0  0
  177.9620   19.7710   46.7950 C   0  0  0  0  0  0  0  0  0  0  0  0
  178.9730   20.7250   46.7150 C   0  0  0  0  0  0  0  0  0  0  0  0
  180.2110   20.4640   46.1130 C   0  0  0  0  0  0  0  0  0  0  0  0
  178.5010   21.8680   47.3140 N   0  0  0  0  0  0  0  0  0  0  0  0
  177.2190   21.6880   47.7800 C   0  0  0  0  0  0  0  0  0  0  0  0
  176.3610   22.5720   48.4450 C   0  0  0  0  0  0  0  0  0  0  0  0
  176.7130   23.9830   48.7980 C   0  0  0  0  0  0  0  0  0  0  0  0
  175.1280   22.1170   48.7930 N   0  0  0  0  0  0  0  0  0  0  0  0
  174.7710   20.8490   48.4930 C   0  0  0  0  0  0  0  0  0  0  0  0
  175.5770   19.9350   47.8370 C   0  0  0  0  0  0  0  0  0  0  0  0
  176.8540   20.3780   47.4670 C   0  0  0  0  0  0  0  0  0  0  0  0
  181.9375   17.0318   44.5543 H   0  0  0  0  0  0  0  0  0  0  0  0
  180.9069   17.9580   43.4113 H   0  0  0  0  0  0  0  0  0  0  0  0
  182.6872   18.1971   43.4113 H   0  0  0  0  0  0  0  0  0  0  0  0
  179.6185   17.2213   45.2124 H   0  0  0  0  0  0  0  0  0  0  0  0
  177.4229   17.7190   46.2950 H   0  0  0  0  0  0  0  0  0  0  0  0
  180.9899   21.2394   46.0664 H   0  0  0  0  0  0  0  0  0  0  0  0
  179.0120   22.7050   47.3980 H   0  0  0  0  0  0  0  0  0  0  0  0
  176.7400   24.0914   49.8923 H   0  0  0  0  0  0  0  0  0  0  0  0
  177.7003   24.2300   48.3806 H   0  0  0  0  0  0  0  0  0  0  0  0
  175.9574   24.6648   48.3806 H   0  0  0  0  0  0  0  0  0  0  0  0
  173.7654   20.5186   48.7923 H   0  0  0  0  0  0  0  0  0  0  0  0
  175.2330   18.9135   47.6174 H   0  0  0  0  0  0  0  0  0  0  0  0
  1  2  1  0
  2  3  1  0
  3  4  2  0
  4  5  1  0
  5  6  2  0
  6  7  1  0
  7  8  2  0
  7  9  1  0
  9 10  1  0
 10 11  2  0
 11 12  1  0
 11 13  1  0
 13 14  2  0
 14 15  1  0
 15 16  2  0
  8  3  1  0
 16 10  1  0
 16  6  1  0
  1 17  1  0
  1 18  1  0
  1 19  1  0
  4 20  1  0
  5 21  1  0
  8 22  1  0
  9 23  1  0
 12 24  1  0
 12 25  1  0
 12 26  1  0
 14 27  1  0
 15 28  1  0
M  END
>  <meeko>  (7) 
{"is_sidechain": [false], "free_energy": -6.008, "intermolecular_energy": -6.359, "internal_energy": -0.041}

$$$$
harmine_out
     RDKit          3D

 28 30  0  0  0  0  0  0  0  0999 V2000
  182.9970   21.9230   45.9640 C   0  0  0  0  0  0  0  0  0  0  0  0
  181.6040   21.7240   46.1690 O   0  0  0  0  0  0  0  0  0  0  0  0
  181.1220   20.4580   45.9670 C   0  0  0  0  0  0  0  0  0  0  0  0
  180.0660   19.8670   46.6600 C   0  0  0  0  0  0  0  0  0  0  0  0
  179.6560   18.5580   46.3670 C   0  0  0  0  0  0  0  0  0  0  0  0
  180.3180   17.8270   45.3590 C   0  0  0  0  0  0  0  0  0  0  0  0
  181.3680   18.4390   44.6810 C   0  0  0  0  0  0  0  0  0  0  0  0
  181.7890   19.7450   44.9610 C   0  0  0  0  0  0  0  0  0  0  0  0
  181.8380   17.5330   43.7610 N   0  0  0  0  0  0  0  0  0  0  0  0
  181.1290   16.3560   43.8190 C   0  0  0  0  0  0  0  0  0  0  0  0
  181.2630   15.1760   43.0780 C   0  0  0  0  0  0  0  0  0  0  0  0
  182.2820   14.9680   42.0020 C   0  0  0  0  0  0  0  0  0  0  0  0
  180.4110   14.1530   43.3540 N   0  0  0  0  0  0  0  0  0  0  0  0
  179.4760   14.3000   44.3180 C   0  0  0  0  0  0  0  0  0  0  0  0
  179.3000   15.4420   45.0810 C   0  0  0  0  0  0  0  0  0  0  0  0
  180.1660   16.5120   44.8160 C   0  0  0  0  0  0  0  0  0  0  0  0
  183.5042   21.9955   46.9374 H   0  0  0  0  0  0  0  0  0  0  0  0
  183.4092   21.0746   45.3980 H   0  0  0  0  0  0  0  0  0  0  0  0
  183.1552   22.8529   45.3980 H   0  0  0  0  0  0  0  0  0  0  0  0
  179.5477   20.4348   47.4468 H   0  0  0  0  0  0  0  0  0  0  0  0
  178.8216   18.1035   46.9212 H   0  0  0  0  0  0  0  0  0  0  0  0
  182.6223   20.2000   44.4054 H   0  0  0  0  0  0  0  0  0  0  0  0
  182.5840   17.7040   43.1420 H   0  0  0  0  0  0  0  0  0  0  0  0
  183.2623   14.7679   42.4591 H   0  0  0  0  0  0  0  0  0  0  0  0
  181.9867   14.1116   41.3780 H   0  0  0  0  0  0  0  0  0  0  0  0
  182.3460   15.8716   41.3780 H   0  0  0  0  0  0  0  0  0  0  0  0
  178.8051   13.4499   44.5110 H   0  0  0  0  0  0  0  0  0  0  0  0
  178.5210   15.5063   45.8550 H   0  0  0  0  0  0  0  0  0  0  0  0
  1  2  1  0
  2  3  1  0
  3  4  2  0
  4  5  1  0
  5  6  2  0
  6  7  1  0
  7  8  2  0
  7  9  1  0
  9 10  1  0
 10 11  2  0
 11 12  1  0
 11 13  1  0
 13 14  2  0
 14 15  1  0
 15 16  2  0
  8  3  1  0
 16 10  1  0
 16  6  1  0
  1 17  1  0
  1 18  1  0
  1 19  1  0
  4 20  1  0
  5 21  1  0
  8 22  1  0
  9 23  1  0
 12 24  1  0
 12 25  1  0
 12 26  1  0
 14 27  1  0
 15 28  1  0
M  END
>  <meeko>  (8) 
{"is_sidechain": [false], "free_energy": -4.917, "intermolecular_energy": -5.19, "internal_energy": -0.055}

$$$$
harmine_out
     RDKit          3D

 28 30  0  0  0  0  0  0  0  0999 V2000
  181.0350   15.6230   41.3180 C   0  0  0  0  0  0  0  0  0  0  0  0
  181.3290   15.3010   42.6710 O   0  0  0  0  0  0  0  0  0  0  0  0
  181.0550   16.2590   43.6110 C   0  0  0  0  0  0  0  0  0  0  0  0
  180.0060   16.2240   44.5280 C   0  0  0  0  0  0  0  0  0  0  0  0
  179.8200   17.2660   45.4490 C   0  0  0  0  0  0  0  0  0  0  0  0
  180.7040   18.3640   45.4500 C   0  0  0  0  0  0  0  0  0  0  0  0
  181.7440   18.3750   44.5240 C   0  0  0  0  0  0  0  0  0  0  0  0
  181.9430   17.3430   43.5990 C   0  0  0  0  0  0  0  0  0  0  0  0
  182.4540   19.5340   44.7270 N   0  0  0  0  0  0  0  0  0  0  0  0
  181.9100   20.2740   45.7520 C   0  0  0  0  0  0  0  0  0  0  0  0
  182.3020   21.5050   46.2910 C   0  0  0  0  0  0  0  0  0  0  0  0
  183.4760   22.3000   45.8130 C   0  0  0  0  0  0  0  0  0  0  0  0
  181.5660   22.0100   47.3170 N   0  0  0  0  0  0  0  0  0  0  0  0
  180.4980   21.3240   47.7790 C   0  0  0  0  0  0  0  0  0  0  0  0
  180.0670   20.1050   47.2830 C   0  0  0  0  0  0  0  0  0  0  0  0
  180.8080   19.5620   46.2250 C   0  0  0  0  0  0  0  0  0  0  0  0
  180.2936   16.4350   41.2871 H   0  0  0  0  0  0  0  0  0  0  0  0
  181.9552   15.9472   40.8100 H   0  0  0  0  0  0  0  0  0  0  0  0
  180.6287   14.7360   40.8100 H   0  0  0  0  0  0  0  0  0  0  0  0
  179.3148   15.3682   44.5297 H   0  0  0  0  0  0  0  0  0  0  0  0
  178.9878   17.2263   46.1673 H   0  0  0  0  0  0  0  0  0  0  0  0
  182.7754   17.3821   42.8810 H   0  0  0  0  0  0  0  0  0  0  0  0
  183.2470   19.8000   44.2080 H   0  0  0  0  0  0  0  0  0  0  0  0
  184.0380   22.6806   46.6786 H   0  0  0  0  0  0  0  0  0  0  0  0
  184.1301   21.6583   45.2045 H   0  0  0  0  0  0  0  0  0  0  0  0
  183.1229   23.1456   45.2045 H   0  0  0  0  0  0  0  0  0  0  0  0
  179.9289   21.7660   48.6101 H   0  0  0  0  0  0  0  0  0  0  0  0
  179.1883   19.5896   47.6982 H   0  0  0  0  0  0  0  0  0  0  0  0
  1  2  1  0
  2  3  1  0
  3  4  2  0
  4  5  1  0
  5  6  2  0
  6  7  1  0
  7  8  2  0
  7  9  1  0
  9 10  1  0
 10 11  2  0
 11 12  1  0
 11 13  1  0
 13 14  2  0
 14 15  1  0
 15 16  2  0
  8  3  1  0
 16 10  1  0
 16  6  1  0
  1 17  1  0
  1 18  1  0
  1 19  1  0
  4 20  1  0
  5 21  1  0
  8 22  1  0
  9 23  1  0
 12 24  1  0
 12 25  1  0
 12 26  1  0
 14 27  1  0
 15 28  1  0
M  END
>  <meeko>  (9) 
{"is_sidechain": [false], "free_energy": -4.826, "intermolecular_energy": -5.106, "internal_energy": -0.043}

$$$$
