safinamide_out
     RDKit          3D

 42 43  0  0  0  0  0  0  0  0999 V2000
  175.3730   21.2540   49.2650 C   0  0  0  0  0  0  0  0  0  0  0  0
  176.3460   22.3650   48.8780 C   0  0  2  0  0  0  0  0  0  0  0  0
  177.7260   21.9500   49.2400 N   0  0  0  0  0  0  0  0  0  0  0  0
  178.6940   22.4070   48.2370 C   0  0  0  0  0  0  0  0  0  0  0  0
  179.2730   21.2260   47.4930 C   0  0  0  0  0  0  0  0  0  0  0  0
  180.6530   20.9890   47.4980 C   0  0  0  0  0  0  0  0  0  0  0  0
  181.1950   19.8870   46.8270 C   0  0  0  0  0  0  0  0  0  0  0  0
  180.3590   19.0030   46.1450 C   0  0  0  0  0  0  0  0  0  0  0  0
  180.7520   17.8920   45.4520 O   0  0  0  0  0  0  0  0  0  0  0  0
  181.1700   18.0830   44.1040 C   0  0  0  0  0  0  0  0  0  0  0  0
  181.0740   16.7540   43.3950 C   0  0  0  0  0  0  0  0  0  0  0  0
  180.8630   15.5720   44.1240 C   0  0  0  0  0  0  0  0  0  0  0  0
  180.7560   14.3410   43.4710 C   0  0  0  0  0  0  0  0  0  0  0  0
  180.8510   14.2820   42.0820 C   0  0  0  0  0  0  0  0  0  0  0  0
  181.0450   15.4520   41.3590 C   0  0  0  0  0  0  0  0  0  0  0  0
  181.1290   15.3950   40.0230 F   0  0  0  0  0  0  0  0  0  0  0  0
  181.1530   16.6830   41.9980 C   0  0  0  0  0  0  0  0  0  0  0  0
  178.9810   19.2300   46.1450 C   0  0  0  0  0  0  0  0  0  0  0  0
  178.4380   20.3300   46.8150 C   0  0  0  0  0  0  0  0  0  0  0  0
  175.9680   23.6540   49.6280 C   0  0  0  0  0  0  0  0  0  0  0  0
  174.7110   24.1230   49.3620 N   0  0  0  0  0  0  0  0  0  0  0  0
  176.7280   24.2470   50.3850 O   0  0  0  0  0  0  0  0  0  0  0  0
  175.3125   21.1849   50.3612 H   0  0  0  0  0  0  0  0  0  0  0  0
  174.3771   21.4800   48.8563 H   0  0  0  0  0  0  0  0  0  0  0  0
  175.7284   20.2966   48.8563 H   0  0  0  0  0  0  0  0  0  0  0  0
  176.2957   22.5511   47.7950 H   0  0  0  0  0  0  0  0  0  0  0  0
  177.7640   20.9340   49.3010 H   0  0  0  0  0  0  0  0  0  0  0  0
  177.9660   22.3720   50.1370 H   0  0  0  0  0  0  0  0  0  0  0  0
  178.1893   23.0742   47.5228 H   0  0  0  0  0  0  0  0  0  0  0  0
  179.5082   22.9456   48.7439 H   0  0  0  0  0  0  0  0  0  0  0  0
  181.3200   21.6782   48.0366 H   0  0  0  0  0  0  0  0  0  0  0  0
  182.2819   19.7177   46.8374 H   0  0  0  0  0  0  0  0  0  0  0  0
  180.5166   18.8176   43.6107 H   0  0  0  0  0  0  0  0  0  0  0  0
  182.2031   18.4596   44.0732 H   0  0  0  0  0  0  0  0  0  0  0  0
  180.7812   15.6157   45.2201 H   0  0  0  0  0  0  0  0  0  0  0  0
  180.5971   13.4207   44.0522 H   0  0  0  0  0  0  0  0  0  0  0  0
  180.7729   13.3159   41.5619 H   0  0  0  0  0  0  0  0  0  0  0  0
  181.3002   17.5992   41.4073 H   0  0  0  0  0  0  0  0  0  0  0  0
  178.3154   18.5353   45.6117 H   0  0  0  0  0  0  0  0  0  0  0  0
  177.3501   20.4923   46.8095 H   0  0  0  0  0  0  0  0  0  0  0  0
  174.1200   23.6280   48.7490 H   0  0  0  0  0  0  0  0  0  0  0  0
  174.3980   24.9570   49.7810 H   0  0  0  0  0  0  0  0  0  0  0  0
  1  2  1  0
  2  3  1  0
  3  4  1  0
  4  5  1  0
  5  6  2  0
  6  7  1  0
  7  8  2  0
  8  9  1  0
  9 10  1  0
 10 11  1  0
 11 12  2  0
 12 13  1  0
 13 14  2  0
 14 15  1  0
 15 16  1  0
 15 17  2  0
  8 18  1  0
 18 19  2  0
  2 20  1  0
 20 21  1  0
 20 22  2  0
 19  5  1  0
 17 11  1  0
  1 23  1  0
  1 24  1  0
  1 25  1  0
  2 26  1  6
  3 27  1  0
  3 28  1  0
  4 29  1  0
  4 30  1  0
  6 31  1  0
  7 32  1  0
 10 33  1  0
 10 34  1  0
 12 35  1  0
 13 36  1  0
 14 37  1  0
 17 38  1  0
 18 39  1  0
 19 40  1  0
 21 41  1  0
 21 42  1  0
M  CHG  1   3   1
M  END
>  <meeko>  (1) 
{"is_sidechain": [false], "free_energy": -8.77, "intermolecular_energy": -12.358, "internal_energy": -0.566}

$$$$
safinamide_out
     RDKit          3D

 42 43  0  0  0  0  0  0  0  0999 V2000
  176.7390   23.4360   48.0020 C   0  0  0  0  0  0  0  0  0  0  0  0
  176.6260   22.5450   49.2360 C   0  0  2  0  0  0  0  0  0  0  0  0
  177.8570   21.7220   49.3560 N   0  0  0  0  0  0  0  0  0  0  0  0
  178.8660   22.1380   48.3750 C   0  0  0  0  0  0  0  0  0  0  0  0
  179.3280   20.9500   47.5650 C   0  0  0  0  0  0  0  0  0  0  0  0
  178.3970   20.0900   46.9700 C   0  0  0  0  0  0  0  0  0  0  0  0
  178.8170   18.9970   46.2030 C   0  0  0  0  0  0  0  0  0  0  0  0
  180.1780   18.7550   46.0160 C   0  0  0  0  0  0  0  0  0  0  0  0
  180.7240   17.7310   45.2930 O   0  0  0  0  0  0  0  0  0  0  0  0
  181.1230   18.0210   43.9570 C   0  0  0  0  0  0  0  0  0  0  0  0
  181.1200   16.7270   43.1810 C   0  0  0  0  0  0  0  0  0  0  0  0
  181.0470   15.4950   43.8520 C   0  0  0  0  0  0  0  0  0  0  0  0
  181.0270   14.2940   43.1370 C   0  0  0  0  0  0  0  0  0  0  0  0
  181.0730   14.3140   41.7450 C   0  0  0  0  0  0  0  0  0  0  0  0
  181.1310   15.5330   41.0790 C   0  0  0  0  0  0  0  0  0  0  0  0
  181.1690   15.5510   39.7400 F   0  0  0  0  0  0  0  0  0  0  0  0
  181.1520   16.7340   41.7800 C   0  0  0  0  0  0  0  0  0  0  0  0
  181.1100   19.6160   46.5990 C   0  0  0  0  0  0  0  0  0  0  0  0
  180.6920   20.7080   47.3650 C   0  0  0  0  0  0  0  0  0  0  0  0
  175.3940   21.6350   49.0930 C   0  0  0  0  0  0  0  0  0  0  0  0
  174.8460   21.2210   50.2770 N   0  0  0  0  0  0  0  0  0  0  0  0
  174.9400   21.2710   48.0140 O   0  0  0  0  0  0  0  0  0  0  0  0
  176.8716   24.4819   48.3158 H   0  0  0  0  0  0  0  0  0  0  0  0
  177.6044   23.1211   47.4004 H   0  0  0  0  0  0  0  0  0  0  0  0
  175.8224   23.3471   47.4004 H   0  0  0  0  0  0  0  0  0  0  0  0
  176.5141   23.1631   50.1390 H   0  0  0  0  0  0  0  0  0  0  0  0
  177.6210   20.7440   49.1950 H   0  0  0  0  0  0  0  0  0  0  0  0
  178.2420   21.8490   50.2910 H   0  0  0  0  0  0  0  0  0  0  0  0
  178.4290   22.8894   47.7009 H   0  0  0  0  0  0  0  0  0  0  0  0
  179.7282   22.5664   48.9071 H   0  0  0  0  0  0  0  0  0  0  0  0
  177.3215   20.2757   47.1071 H   0  0  0  0  0  0  0  0  0  0  0  0
  178.0726   18.3278   45.7470 H   0  0  0  0  0  0  0  0  0  0  0  0
  180.4171   18.7314   43.5019 H   0  0  0  0  0  0  0  0  0  0  0  0
  182.1262   18.4721   43.9460 H   0  0  0  0  0  0  0  0  0  0  0  0
  181.0052   15.4752   44.9510 H   0  0  0  0  0  0  0  0  0  0  0  0
  180.9750   13.3347   43.6728 H   0  0  0  0  0  0  0  0  0  0  0  0
  181.0635   13.3722   41.1768 H   0  0  0  0  0  0  0  0  0  0  0  0
  181.1937   17.6887   41.2352 H   0  0  0  0  0  0  0  0  0  0  0  0
  182.1849   19.4329   46.4539 H   0  0  0  0  0  0  0  0  0  0  0  0
  181.4386   21.3804   47.8128 H   0  0  0  0  0  0  0  0  0  0  0  0
  175.2300   21.5270   51.1300 H   0  0  0  0  0  0  0  0  0  0  0  0
  174.0700   20.6160   50.2750 H   0  0  0  0  0  0  0  0  0  0  0  0
  1  2  1  0
  2  3  1  0
  3  4  1  0
  4  5  1  0
  5  6  2  0
  6  7  1  0
  7  8  2  0
  8  9  1  0
  9 10  1  0
 10 11  1  0
 11 12  2  0
 12 13  1  0
 13 14  2  0
 14 15  1  0
 15 16  1  0
 15 17  2  0
  8 18  1  0
 18 19  2  0
  2 20  1  0
 20 21  1  0
 20 22  2  0
 19  5  1  0
 17 11  1  0
  1 23  1  0
  1 24  1  0
  1 25  1  0
  2 26  1  1
  3 27  1  0
  3 28  1  0
  4 29  1  0
  4 30  1  0
  6 31  1  0
  7 32  1  0
 10 33  1  0
 10 34  1  0
 12 35  1  0
 13 36  1  0
 14 37  1  0
 17 38  1  0
 18 39  1  0
 19 40  1  0
 21 41  1  0
 21 42  1  0
M  CHG  1   3   1
M  END
>  <meeko>  (2) 
{"is_sidechain": [false], "free_energy": -8.687, "intermolecular_energy": -12.101, "internal_energy": -0.707}

$$$$
safinamide_out
     RDKit          3D

 42 43  0  0  0  0  0  0  0  0999 V2000
  175.5900   23.8150   49.2760 C   0  0  0  0  0  0  0  0  0  0  0  0
  176.2790   22.4740   49.0340 C   0  0  2  0  0  0  0  0  0  0  0  0
  176.9610   22.5090   47.7150 N   0  0  0  0  0  0  0  0  0  0  0  0
  178.4180   22.5840   47.8770 C   0  0  0  0  0  0  0  0  0  0  0  0
  179.0770   21.3910   47.2250 C   0  0  0  0  0  0  0  0  0  0  0  0
  180.4730   21.3000   47.1570 C   0  0  0  0  0  0  0  0  0  0  0  0
  181.0920   20.1890   46.5710 C   0  0  0  0  0  0  0  0  0  0  0  0
  180.3200   19.1510   46.0500 C   0  0  0  0  0  0  0  0  0  0  0  0
  180.7900   18.0150   45.4540 O   0  0  0  0  0  0  0  0  0  0  0  0
  181.3040   18.1400   44.1320 C   0  0  0  0  0  0  0  0  0  0  0  0
  181.0810   16.8280   43.4200 C   0  0  0  0  0  0  0  0  0  0  0  0
  181.1920   16.7490   42.0220 C   0  0  0  0  0  0  0  0  0  0  0  0
  181.0030   15.5320   41.3610 C   0  0  0  0  0  0  0  0  0  0  0  0
  180.7100   14.3820   42.0910 C   0  0  0  0  0  0  0  0  0  0  0  0
  180.6140   14.4570   43.4750 C   0  0  0  0  0  0  0  0  0  0  0  0
  180.3390   13.3500   44.1770 F   0  0  0  0  0  0  0  0  0  0  0  0
  180.8000   15.6620   44.1450 C   0  0  0  0  0  0  0  0  0  0  0  0
  178.9280   19.2340   46.1250 C   0  0  0  0  0  0  0  0  0  0  0  0
  178.3080   20.3410   46.7100 C   0  0  0  0  0  0  0  0  0  0  0  0
  175.2250   21.3530   49.0540 C   0  0  0  0  0  0  0  0  0  0  0  0
  174.7970   20.9920   50.3020 N   0  0  0  0  0  0  0  0  0  0  0  0
  174.8110   20.7920   48.0460 O   0  0  0  0  0  0  0  0  0  0  0  0
  175.4997   23.9908   50.3581 H   0  0  0  0  0  0  0  0  0  0  0  0
  176.1859   24.6206   48.8221 H   0  0  0  0  0  0  0  0  0  0  0  0
  174.5881   23.7997   48.8221 H   0  0  0  0  0  0  0  0  0  0  0  0
  177.0230   22.2835   49.8215 H   0  0  0  0  0  0  0  0  0  0  0  0
  176.6410   23.3260   47.1950 H   0  0  0  0  0  0  0  0  0  0  0  0
  176.7350   21.6520   47.2100 H   0  0  0  0  0  0  0  0  0  0  0  0
  178.7890   23.5064   47.4064 H   0  0  0  0  0  0  0  0  0  0  0  0
  178.6604   22.5864   48.9499 H   0  0  0  0  0  0  0  0  0  0  0  0
  181.0909   22.1114   47.5691 H   0  0  0  0  0  0  0  0  0  0  0  0
  182.1895   20.1349   46.5215 H   0  0  0  0  0  0  0  0  0  0  0  0
  180.7776   18.9471   43.6014 H   0  0  0  0  0  0  0  0  0  0  0  0
  182.3765   18.3826   44.1599 H   0  0  0  0  0  0  0  0  0  0  0  0
  181.4298   17.6530   41.4422 H   0  0  0  0  0  0  0  0  0  0  0  0
  181.0855   15.4822   40.2652 H   0  0  0  0  0  0  0  0  0  0  0  0
  180.5559   13.4224   41.5757 H   0  0  0  0  0  0  0  0  0  0  0  0
  180.7267   15.6995   45.2419 H   0  0  0  0  0  0  0  0  0  0  0  0
  178.3123   18.4181   45.7186 H   0  0  0  0  0  0  0  0  0  0  0  0
  177.2104   20.3876   46.7661 H   0  0  0  0  0  0  0  0  0  0  0  0
  175.1450   21.4590   51.0970 H   0  0  0  0  0  0  0  0  0  0  0  0
  174.1410   20.2650   50.4070 H   0  0  0  0  0  0  0  0  0  0  0  0
  1  2  1  0
  2  3  1  0
  3  4  1  0
  4  5  1  0
  5  6  2  0
  6  7  1  0
  7  8  2  0
  8  9  1  0
  9 10  1  0
 10 11  1  0
 11 12  2  0
 12 13  1  0
 13 14  2  0
 14 15  1  0
 15 16  1  0
 15 17  2  0
  8 18  1  0
 18 19  2  0
  2 20  1  0
 20 21  1  0
 20 22  2  0
 19  5  1  0
 17 11  1  0
  1 23  1  0
  1 24  1  0
  1 25  1  0
  2 26  1  1
  3 27  1  0
  3 28  1  0
  4 29  1  0
  4 30  1  0
  6 31  1  0
  7 32  1  0
 10 33  1  0
 10 34  1  0
 12 35  1  0
 13 36  1  0
 14 37  1  0
 17 38  1  0
 18 39  1  0
 19 40  1  0
 21 41  1  0
 21 42  1  0
M  CHG  1   3   1
M  END
>  <meeko>  (3) 
{"is_sidechain": [false], "free_energy": -8.39, "intermolecular_energy": -11.748, "internal_energy": -0.641}

$$$$
safinamide_out
     RDKit          3D

 42 43  0  0  0  0  0  0  0  0999 V2000
  180.9850   14.6990   44.2730 C   0  0  0  0  0  0  0  0  0  0  0  0
  181.5890   15.7710   43.3690 C   0  0  2  0  0  0  0  0  0  0  0  0
  180.8800   17.0560   43.5980 N   0  0  0  0  0  0  0  0  0  0  0  0
  181.8170   18.1090   44.0080 C   0  0  0  0  0  0  0  0  0  0  0  0
  181.2040   18.9590   45.0950 C   0  0  0  0  0  0  0  0  0  0  0  0
  179.9630   18.6200   45.6480 C   0  0  0  0  0  0  0  0  0  0  0  0
  179.3960   19.3930   46.6690 C   0  0  0  0  0  0  0  0  0  0  0  0
  180.0700   20.5140   47.1540 C   0  0  0  0  0  0  0  0  0  0  0  0
  179.6360   21.3520   48.1420 O   0  0  0  0  0  0  0  0  0  0  0  0
  178.6270   22.2960   47.7960 C   0  0  0  0  0  0  0  0  0  0  0  0
  177.2880   21.6140   47.9280 C   0  0  0  0  0  0  0  0  0  0  0  0
  176.4280   21.5120   46.8210 C   0  0  0  0  0  0  0  0  0  0  0  0
  175.1940   20.8660   46.9340 C   0  0  0  0  0  0  0  0  0  0  0  0
  174.8110   20.3090   48.1520 C   0  0  0  0  0  0  0  0  0  0  0  0
  175.6660   20.3960   49.2440 C   0  0  0  0  0  0  0  0  0  0  0  0
  175.3000   19.8540   50.4130 F   0  0  0  0  0  0  0  0  0  0  0  0
  176.8970   21.0370   49.1440 C   0  0  0  0  0  0  0  0  0  0  0  0
  181.3120   20.8500   46.6120 C   0  0  0  0  0  0  0  0  0  0  0  0
  181.8800   20.0790   45.5930 C   0  0  0  0  0  0  0  0  0  0  0  0
  181.4370   15.3390   41.9000 C   0  0  0  0  0  0  0  0  0  0  0  0
  181.4330   16.3680   40.9970 N   0  0  0  0  0  0  0  0  0  0  0  0
  181.2970   14.1740   41.5450 O   0  0  0  0  0  0  0  0  0  0  0  0
  181.1414   14.9765   45.3259 H   0  0  0  0  0  0  0  0  0  0  0  0
  179.9068   14.6150   44.0722 H   0  0  0  0  0  0  0  0  0  0  0  0
  181.4717   13.7332   44.0722 H   0  0  0  0  0  0  0  0  0  0  0  0
  182.6571   15.9004   43.5981 H   0  0  0  0  0  0  0  0  0  0  0  0
  180.1840   16.9270   44.3310 H   0  0  0  0  0  0  0  0  0  0  0  0
  180.4350   17.3410   42.7260 H   0  0  0  0  0  0  0  0  0  0  0  0
  182.7406   17.6463   44.3861 H   0  0  0  0  0  0  0  0  0  0  0  0
  182.0435   18.7454   43.1399 H   0  0  0  0  0  0  0  0  0  0  0  0
  179.4264   17.7349   45.2756 H   0  0  0  0  0  0  0  0  0  0  0  0
  178.4179   19.1158   47.0891 H   0  0  0  0  0  0  0  0  0  0  0  0
  178.6749   23.1599   48.4753 H   0  0  0  0  0  0  0  0  0  0  0  0
  178.7745   22.6539   46.7664 H   0  0  0  0  0  0  0  0  0  0  0  0
  176.7294   21.9451   45.8558 H   0  0  0  0  0  0  0  0  0  0  0  0
  174.5262   20.7975   46.0626 H   0  0  0  0  0  0  0  0  0  0  0  0
  173.8386   19.8039   48.2487 H   0  0  0  0  0  0  0  0  0  0  0  0
  177.5625   21.0908   50.0182 H   0  0  0  0  0  0  0  0  0  0  0  0
  181.8500   21.7315   46.9909 H   0  0  0  0  0  0  0  0  0  0  0  0
  182.8622   20.3538   45.1810 H   0  0  0  0  0  0  0  0  0  0  0  0
  181.5470   17.2960   41.3080 H   0  0  0  0  0  0  0  0  0  0  0  0
  181.3160   16.1810   40.0380 H   0  0  0  0  0  0  0  0  0  0  0  0
  1  2  1  0
  2  3  1  0
  3  4  1  0
  4  5  1  0
  5  6  2  0
  6  7  1  0
  7  8  2  0
  8  9  1  0
  9 10  1  0
 10 11  1  0
 11 12  2  0
 12 13  1  0
 13 14  2  0
 14 15  1  0
 15 16  1  0
 15 17  2  0
  8 18  1  0
 18 19  2  0
  2 20  1  0
 20 21  1  0
 20 22  2  0
 19  5  1  0
 17 11  1  0
  1 23  1  0
  1 24  1  0
  1 25  1  0
  2 26  1  1
  3 27  1  0
  3 28  1  0
  4 29  1  0
  4 30  1  0
  6 31  1  0
  7 32  1  0
 10 33  1  0
 10 34  1  0
 12 35  1  0
 13 36  1  0
 14 37  1  0
 17 38  1  0
 18 39  1  0
 19 40  1  0
 21 41  1  0
 21 42  1  0
M  CHG  1   3   1
M  END
>  <meeko>  (4) 
{"is_sidechain": [false], "free_energy": -7.935, "intermolecular_energy": -11.074, "internal_energy": -0.674}

$$$$
safinamide_out
     RDKit          3D

 42 43  0  0  0  0  0  0  0  0999 V2000
  175.4950   23.5730   49.3220 C   0  0  0  0  0  0  0  0  0  0  0  0
  176.4190   22.7720   48.4080 C   0  0  2  0  0  0  0  0  0  0  0  0
  175.7350   21.5180   48.0020 N   0  0  0  0  0  0  0  0  0  0  0  0
  175.9120   21.2630   46.5670 C   0  0  0  0  0  0  0  0  0  0  0  0
  177.1190   20.3850   46.3380 C   0  0  0  0  0  0  0  0  0  0  0  0
  177.0110   18.9910   46.4220 C   0  0  0  0  0  0  0  0  0  0  0  0
  178.1220   18.1700   46.1930 C   0  0  0  0  0  0  0  0  0  0  0  0
  179.3550   18.7350   45.8710 C   0  0  0  0  0  0  0  0  0  0  0  0
  180.5150   18.0550   45.6230 O   0  0  0  0  0  0  0  0  0  0  0  0
  181.1100   18.2330   44.3410 C   0  0  0  0  0  0  0  0  0  0  0  0
  181.0030   16.9270   43.5940 C   0  0  0  0  0  0  0  0  0  0  0  0
  181.2260   16.8790   42.2070 C   0  0  0  0  0  0  0  0  0  0  0  0
  181.1450   15.6680   41.5140 C   0  0  0  0  0  0  0  0  0  0  0  0
  180.8480   14.4930   42.2010 C   0  0  0  0  0  0  0  0  0  0  0  0
  180.6420   14.5360   43.5740 C   0  0  0  0  0  0  0  0  0  0  0  0
  180.3630   13.4050   44.2350 F   0  0  0  0  0  0  0  0  0  0  0  0
  180.7200   15.7360   44.2750 C   0  0  0  0  0  0  0  0  0  0  0  0
  179.4650   20.1240   45.7770 C   0  0  0  0  0  0  0  0  0  0  0  0
  178.3580   20.9450   46.0040 C   0  0  0  0  0  0  0  0  0  0  0  0
  177.7180   22.4440   49.1650 C   0  0  0  0  0  0  0  0  0  0  0  0
  178.6900   23.4030   49.0780 N   0  0  0  0  0  0  0  0  0  0  0  0
  177.9010   21.3980   49.7780 O   0  0  0  0  0  0  0  0  0  0  0  0
  175.7422   23.3587   50.3722 H   0  0  0  0  0  0  0  0  0  0  0  0
  175.6268   24.6474   49.1262 H   0  0  0  0  0  0  0  0  0  0  0  0
  174.4502   23.2901   49.1262 H   0  0  0  0  0  0  0  0  0  0  0  0
  176.6628   23.3579   47.5095 H   0  0  0  0  0  0  0  0  0  0  0  0
  174.7400   21.6000   48.2050 H   0  0  0  0  0  0  0  0  0  0  0  0
  176.1450   20.7420   48.5210 H   0  0  0  0  0  0  0  0  0  0  0  0
  175.0165   20.7591   46.1744 H   0  0  0  0  0  0  0  0  0  0  0  0
  176.0618   22.2213   46.0481 H   0  0  0  0  0  0  0  0  0  0  0  0
  176.0412   18.5355   46.6710 H   0  0  0  0  0  0  0  0  0  0  0  0
  178.0216   17.0771   46.2673 H   0  0  0  0  0  0  0  0  0  0  0  0
  180.5797   19.0234   43.7895 H   0  0  0  0  0  0  0  0  0  0  0  0
  182.1643   18.5287   44.4460 H   0  0  0  0  0  0  0  0  0  0  0  0
  181.4666   17.8035   41.6617 H   0  0  0  0  0  0  0  0  0  0  0  0
  181.3155   15.6427   40.4276 H   0  0  0  0  0  0  0  0  0  0  0  0
  180.7771   13.5379   41.6599 H   0  0  0  0  0  0  0  0  0  0  0  0
  180.5595   15.7491   45.3632 H   0  0  0  0  0  0  0  0  0  0  0  0
  180.4344   20.5766   45.5213 H   0  0  0  0  0  0  0  0  0  0  0  0
  178.4602   22.0370   45.9199 H   0  0  0  0  0  0  0  0  0  0  0  0
  178.5180   24.2340   48.5790 H   0  0  0  0  0  0  0  0  0  0  0  0
  179.5620   23.2610   49.5130 H   0  0  0  0  0  0  0  0  0  0  0  0
  1  2  1  0
  2  3  1  0
  3  4  1  0
  4  5  1  0
  5  6  2  0
  6  7  1  0
  7  8  2  0
  8  9  1  0
  9 10  1  0
 10 11  1  0
 11 12  2  0
 12 13  1  0
 13 14  2  0
 14 15  1  0
 15 16  1  0
 15 17  2  0
  8 18  1  0
 18 19  2  0
  2 20  1  0
 20 21  1  0
 20 22  2  0
 19  5  1  0
 17 11  1  0
  1 23  1  0
  1 24  1  0
  1 25  1  0
  2 26  1  6
  3 27  1  0
  3 28  1  0
  4 29  1  0
  4 30  1  0
  6 31  1  0
  7 32  1  0
 10 33  1  0
 10 34  1  0
 12 35  1  0
 13 36  1  0
 14 37  1  0
 17 38  1  0
 18 39  1  0
 19 40  1  0
 21 41  1  0
 21 42  1  0
M  CHG  1   3   1
M  END
>  <meeko>  (5) 
{"is_sidechain": [false], "free_energy": -7.411, "intermolecular_energy": -10.301, "internal_energy": -0.71}

$$$$
safinamide_out
     RDKit          3D

 42 43  0  0  0  0  0  0  0  0999 V2000
  184.2960   24.4760   45.1590 C   0  0  0  0  0  0  0  0  0  0  0  0
  184.6920   23.4800   46.2470 C   0  0  2  0  0  0  0  0  0  0  0  0
  183.5020   22.6760   46.6270 N   0  0  0  0  0  0  0  0  0  0  0  0
  183.2620   21.6010   45.6570 C   0  0  0  0  0  0  0  0  0  0  0  0
  181.9370   20.9320   45.9360 C   0  0  0  0  0  0  0  0  0  0  0  0
  181.0570   21.4660   46.8870 C   0  0  0  0  0  0  0  0  0  0  0  0
  179.8200   20.8610   47.1390 C   0  0  0  0  0  0  0  0  0  0  0  0
  179.4440   19.7160   46.4370 C   0  0  0  0  0  0  0  0  0  0  0  0
  178.2720   19.0290   46.5820 O   0  0  0  0  0  0  0  0  0  0  0  0
  177.0760   19.6960   46.1900 C   0  0  0  0  0  0  0  0  0  0  0  0
  176.4160   20.2360   47.4340 C   0  0  0  0  0  0  0  0  0  0  0  0
  176.0600   19.3720   48.4840 C   0  0  0  0  0  0  0  0  0  0  0  0
  175.4640   19.8710   49.6460 C   0  0  0  0  0  0  0  0  0  0  0  0
  175.2260   21.2370   49.7730 C   0  0  0  0  0  0  0  0  0  0  0  0
  175.5910   22.0940   48.7420 C   0  0  0  0  0  0  0  0  0  0  0  0
  175.3680   23.4090   48.8680 F   0  0  0  0  0  0  0  0  0  0  0  0
  176.1850   21.6100   47.5810 C   0  0  0  0  0  0  0  0  0  0  0  0
  180.3140   19.1870   45.4820 C   0  0  0  0  0  0  0  0  0  0  0  0
  181.5490   19.7890   45.2280 C   0  0  0  0  0  0  0  0  0  0  0  0
  185.2200   24.2500   47.4700 C   0  0  0  0  0  0  0  0  0  0  0  0
  184.7990   25.5490   47.5550 N   0  0  0  0  0  0  0  0  0  0  0  0
  185.9830   23.7680   48.2990 O   0  0  0  0  0  0  0  0  0  0  0  0
  183.9280   25.4016   45.6256 H   0  0  0  0  0  0  0  0  0  0  0  0
  185.1720   24.7037   44.5339 H   0  0  0  0  0  0  0  0  0  0  0  0
  183.5028   24.0400   44.5339 H   0  0  0  0  0  0  0  0  0  0  0  0
  185.4799   22.8083   45.8754 H   0  0  0  0  0  0  0  0  0  0  0  0
  182.6850   23.2840   46.6590 H   0  0  0  0  0  0  0  0  0  0  0  0
  183.6730   22.2550   47.5400 H   0  0  0  0  0  0  0  0  0  0  0  0
  183.2486   22.0242   44.6417 H   0  0  0  0  0  0  0  0  0  0  0  0
  184.0656   20.8547   45.7426 H   0  0  0  0  0  0  0  0  0  0  0  0
  181.3418   22.3718   47.4424 H   0  0  0  0  0  0  0  0  0  0  0  0
  179.1429   21.2897   47.8925 H   0  0  0  0  0  0  0  0  0  0  0  0
  177.3166   20.5230   45.5058 H   0  0  0  0  0  0  0  0  0  0  0  0
  176.4017   18.9991   45.6708 H   0  0  0  0  0  0  0  0  0  0  0  0
  176.2522   18.2930   48.3905 H   0  0  0  0  0  0  0  0  0  0  0  0
  175.1834   19.1853   50.4590 H   0  0  0  0  0  0  0  0  0  0  0  0
  174.7525   21.6347   50.6827 H   0  0  0  0  0  0  0  0  0  0  0  0
  176.4731   22.3055   46.7790 H   0  0  0  0  0  0  0  0  0  0  0  0
  180.0237   18.2854   44.9227 H   0  0  0  0  0  0  0  0  0  0  0  0
  182.2197   19.3623   44.4677 H   0  0  0  0  0  0  0  0  0  0  0  0
  184.1860   25.9140   46.8750 H   0  0  0  0  0  0  0  0  0  0  0  0
  185.1100   26.1210   48.2940 H   0  0  0  0  0  0  0  0  0  0  0  0
  1  2  1  0
  2  3  1  0
  3  4  1  0
  4  5  1  0
  5  6  2  0
  6  7  1  0
  7  8  2  0
  8  9  1  0
  9 10  1  0
 10 11  1  0
 11 12  2  0
 12 13  1  0
 13 14  2  0
 14 15  1  0
 15 16  1  0
 15 17  2  0
  8 18  1  0
 18 19  2  0
  2 20  1  0
 20 21  1  0
 20 22  2  0
 19  5  1  0
 17 11  1  0
  1 23  1  0
  1 24  1  0
  1 25  1  0
  2 26  1  6
  3 27  1  0
  3 28  1  0
  4 29  1  0
  4 30  1  0
  6 31  1  0
  7 32  1  0
 10 33  1  0
 10 34  1  0
 12 35  1  0
 13 36  1  0
 14 37  1  0
 17 38  1  0
 18 39  1  0
 19 40  1  0
 21 41  1  0
 21 42  1  0
M  CHG  1   3   1
M  END
>  <meeko>  (6) 
{"is_sidechain": [false], "free_energy": -7.275, "intermolecular_energy": -10.159, "internal_energy": -0.659}

$$$$
safinamide_out
     RDKit          3D

 42 43  0  0  0  0  0  0  0  0999 V2000
  186.4640   22.2640   44.3350 C   0  0  0  0  0  0  0  0  0  0  0  0
  185.1430   22.9880   44.5850 C   0  0  2  0  0  0  0  0  0  0  0  0
  184.0890   21.9860   44.8860 N   0  0  0  0  0  0  0  0  0  0  0  0
  183.4450   22.2690   46.1740 C   0  0  0  0  0  0  0  0  0  0  0  0
  182.1850   21.4490   46.3200 C   0  0  0  0  0  0  0  0  0  0  0  0
  181.4080   21.5400   47.4810 C   0  0  0  0  0  0  0  0  0  0  0  0
  180.2290   20.7960   47.6160 C   0  0  0  0  0  0  0  0  0  0  0  0
  179.8110   19.9550   46.5860 C   0  0  0  0  0  0  0  0  0  0  0  0
  178.6870   19.1770   46.5850 O   0  0  0  0  0  0  0  0  0  0  0  0
  177.4810   19.7800   46.1250 C   0  0  0  0  0  0  0  0  0  0  0  0
  176.7430   20.3160   47.3270 C   0  0  0  0  0  0  0  0  0  0  0  0
  176.2210   19.4390   48.2920 C   0  0  0  0  0  0  0  0  0  0  0  0
  175.5510   19.9320   49.4150 C   0  0  0  0  0  0  0  0  0  0  0  0
  175.4040   21.3070   49.5890 C   0  0  0  0  0  0  0  0  0  0  0  0
  175.9320   22.1760   48.6410 C   0  0  0  0  0  0  0  0  0  0  0  0
  175.7960   23.4980   48.8120 F   0  0  0  0  0  0  0  0  0  0  0  0
  176.6010   21.6970   47.5190 C   0  0  0  0  0  0  0  0  0  0  0  0
  180.5790   19.8680   45.4230 C   0  0  0  0  0  0  0  0  0  0  0  0
  181.7550   20.6100   45.2860 C   0  0  0  0  0  0  0  0  0  0  0  0
  184.7630   23.7950   43.3310 C   0  0  0  0  0  0  0  0  0  0  0  0
  184.1800   25.0070   43.5850 N   0  0  0  0  0  0  0  0  0  0  0  0
  184.9300   23.3900   42.1870 O   0  0  0  0  0  0  0  0  0  0  0  0
  186.9301   22.0085   45.2981 H   0  0  0  0  0  0  0  0  0  0  0  0
  186.2751   21.3433   43.7634 H   0  0  0  0  0  0  0  0  0  0  0  0
  187.1384   22.9186   43.7634 H   0  0  0  0  0  0  0  0  0  0  0  0
  185.2437   23.6748   45.4384 H   0  0  0  0  0  0  0  0  0  0  0  0
  184.5100   21.0590   44.9210 H   0  0  0  0  0  0  0  0  0  0  0  0
  183.3800   22.0310   44.1540 H   0  0  0  0  0  0  0  0  0  0  0  0
  184.1386   22.0173   46.9898 H   0  0  0  0  0  0  0  0  0  0  0  0
  183.1847   23.3369   46.2175 H   0  0  0  0  0  0  0  0  0  0  0  0
  181.7275   22.2042   48.2975 H   0  0  0  0  0  0  0  0  0  0  0  0
  179.6319   20.8755   48.5364 H   0  0  0  0  0  0  0  0  0  0  0  0
  177.7146   20.6022   45.4326 H   0  0  0  0  0  0  0  0  0  0  0  0
  176.8623   19.0423   45.5929 H   0  0  0  0  0  0  0  0  0  0  0  0
  176.3407   18.3532   48.1625 H   0  0  0  0  0  0  0  0  0  0  0  0
  175.1401   19.2356   50.1608 H   0  0  0  0  0  0  0  0  0  0  0  0
  174.8747   21.7013   50.4690 H   0  0  0  0  0  0  0  0  0  0  0  0
  177.0178   22.4011   46.7838 H   0  0  0  0  0  0  0  0  0  0  0  0
  180.2544   19.2077   44.6053 H   0  0  0  0  0  0  0  0  0  0  0  0
  182.3455   20.5342   44.3610 H   0  0  0  0  0  0  0  0  0  0  0  0
  184.0560   25.3090   44.5140 H   0  0  0  0  0  0  0  0  0  0  0  0
  183.8840   25.5760   42.8380 H   0  0  0  0  0  0  0  0  0  0  0  0
  1  2  1  0
  2  3  1  0
  3  4  1  0
  4  5  1  0
  5  6  2  0
  6  7  1  0
  7  8  2  0
  8  9  1  0
  9 10  1  0
 10 11  1  0
 11 12  2  0
 12 13  1  0
 13 14  2  0
 14 15  1  0
 15 16  1  0
 15 17  2  0
  8 18  1  0
 18 19  2  0
  2 20  1  0
 20 21  1  0
 20 22  2  0
 19  5  1  0
 17 11  1  0
  1 23  1  0
  1 24  1  0
  1 25  1  0
  2 26  1  1
  3 27  1  0
  3 28  1  0
  4 29  1  0
  4 30  1  0
  6 31  1  0
  7 32  1  0
 10 33  1  0
 10 34  1  0
 12 35  1  0
 13 36  1  0
 14 37  1  0
 17 38  1  0
 18 39  1  0
 19 40  1  0
 21 41  1  0
 21 42  1  0
M  CHG  1   3   1
M  END
>  <meeko>  (7) 
{"is_sidechain": [false], "free_energy": -7.226, "intermolecular_energy": -10.022, "internal_energy": -0.727}

$$$$
safinamide_out
     RDKit          3D

 42 43  0  0  0  0  0  0  0  0999 V2000
  175.6790   19.3180   48.2610 C   0  0  0  0  0  0  0  0  0  0  0  0
  175.3930   20.8090   48.0940 C   0  0  2  0  0  0  0  0  0  0  0  0
  176.3380   21.3770   47.0990 N   0  0  0  0  0  0  0  0  0  0  0  0
  177.1430   20.3200   46.4740 C   0  0  0  0  0  0  0  0  0  0  0  0
  178.6100   20.6770   46.5320 C   0  0  0  0  0  0  0  0  0  0  0  0
  179.1050   21.4830   47.5650 C   0  0  0  0  0  0  0  0  0  0  0  0
  180.4660   21.8030   47.6360 C   0  0  0  0  0  0  0  0  0  0  0  0
  181.3510   21.3140   46.6750 C   0  0  0  0  0  0  0  0  0  0  0  0
  182.6970   21.5460   46.6250 O   0  0  0  0  0  0  0  0  0  0  0  0
  183.2930   21.6320   45.3330 C   0  0  0  0  0  0  0  0  0  0  0  0
  184.1300   22.8870   45.2920 C   0  0  0  0  0  0  0  0  0  0  0  0
  184.5960   23.3910   44.0660 C   0  0  0  0  0  0  0  0  0  0  0  0
  185.3570   24.5620   44.0210 C   0  0  0  0  0  0  0  0  0  0  0  0
  185.6530   25.2440   45.1990 C   0  0  0  0  0  0  0  0  0  0  0  0
  185.1810   24.7540   46.4100 C   0  0  0  0  0  0  0  0  0  0  0  0
  185.4600   25.4150   47.5420 F   0  0  0  0  0  0  0  0  0  0  0  0
  184.4220   23.5900   46.4680 C   0  0  0  0  0  0  0  0  0  0  0  0
  180.8620   20.5020   45.6490 C   0  0  0  0  0  0  0  0  0  0  0  0
  179.5040   20.1810   45.5770 C   0  0  0  0  0  0  0  0  0  0  0  0
  175.5690   21.5130   49.4510 C   0  0  0  0  0  0  0  0  0  0  0  0
  174.6830   21.1240   50.4180 N   0  0  0  0  0  0  0  0  0  0  0  0
  176.4100   22.3790   49.6630 O   0  0  0  0  0  0  0  0  0  0  0  0
  175.7263   19.0714   49.3320 H   0  0  0  0  0  0  0  0  0  0  0  0
  174.8763   18.7352   47.7857 H   0  0  0  0  0  0  0  0  0  0  0  0
  176.6404   19.0736   47.7857 H   0  0  0  0  0  0  0  0  0  0  0  0
  174.3620   20.9588   47.7409 H   0  0  0  0  0  0  0  0  0  0  0  0
  176.9600   22.0350   47.5670 H   0  0  0  0  0  0  0  0  0  0  0  0
  175.8000   21.8470   46.3710 H   0  0  0  0  0  0  0  0  0  0  0  0
  176.9781   19.3733   47.0094 H   0  0  0  0  0  0  0  0  0  0  0  0
  176.8410   20.2142   45.4216 H   0  0  0  0  0  0  0  0  0  0  0  0
  178.4156   21.8694   48.3301 H   0  0  0  0  0  0  0  0  0  0  0  0
  180.8382   22.4412   48.4510 H   0  0  0  0  0  0  0  0  0  0  0  0
  183.9291   20.7523   45.1553 H   0  0  0  0  0  0  0  0  0  0  0  0
  182.5171   21.6628   44.5539 H   0  0  0  0  0  0  0  0  0  0  0  0
  184.3595   22.8587   43.1329 H   0  0  0  0  0  0  0  0  0  0  0  0
  185.7219   24.9449   43.0565 H   0  0  0  0  0  0  0  0  0  0  0  0
  186.2559   26.1636   45.1704 H   0  0  0  0  0  0  0  0  0  0  0  0
  184.0514   23.2219   47.4361 H   0  0  0  0  0  0  0  0  0  0  0  0
  181.5541   20.1107   44.8888 H   0  0  0  0  0  0  0  0  0  0  0  0
  179.1362   19.5354   44.7658 H   0  0  0  0  0  0  0  0  0  0  0  0
  174.0160   20.4260   50.2220 H   0  0  0  0  0  0  0  0  0  0  0  0
  174.7100   21.5430   51.3080 H   0  0  0  0  0  0  0  0  0  0  0  0
  1  2  1  0
  2  3  1  0
  3  4  1  0
  4  5  1  0
  5  6  2  0
  6  7  1  0
  7  8  2  0
  8  9  1  0
  9 10  1  0
 10 11  1  0
 11 12  2  0
 12 13  1  0
 13 14  2  0
 14 15  1  0
 15 16  1  0
 15 17  2  0
  8 18  1  0
 18 19  2  0
  2 20  1  0
 20 21  1  0
 20 22  2  0
 19  5  1  0
 17 11  1  0
  1 23  1  0
  1 24  1  0
  1 25  1  0
  2 26  1  6
  3 27  1  0
  3 28  1  0
  4 29  1  0
  4 30  1  0
  6 31  1  0
  7 32  1  0
 10 33  1  0
 10 34  1  0
 12 35  1  0
 13 36  1  0
 14 37  1  0
 17 38  1  0
 18 39  1  0
 19 40  1  0
 21 41  1  0
 21 42  1  0
M  CHG  1   3   1
M  END
>  <meeko>  (8) 
{"is_sidechain": [false], "free_energy": -7.202, "intermolecular_energy": -9.888, "internal_energy": -0.828}

$$$$
safinamide_out
     RDKit          3D

 42 43  0  0  0  0  0  0  0  0999 V2000
  175.6370   19.2410   48.1170 C   0  0  0  0  0  0  0  0  0  0  0  0
  175.6300   20.7650   48.0250 C   0  0  2  0  0  0  0  0  0  0  0  0
  176.7310   21.2030   47.1290 N   0  0  0  0  0  0  0  0  0  0  0  0
  177.5660   20.0650   46.7260 C   0  0  0  0  0  0  0  0  0  0  0  0
  179.0160   20.4810   46.6530 C   0  0  0  0  0  0  0  0  0  0  0  0
  179.6360   21.0940   47.7490 C   0  0  0  0  0  0  0  0  0  0  0  0
  180.9850   21.4660   47.6960 C   0  0  0  0  0  0  0  0  0  0  0  0
  181.7320   21.2240   46.5440 C   0  0  0  0  0  0  0  0  0  0  0  0
  183.0500   21.5340   46.3560 O   0  0  0  0  0  0  0  0  0  0  0  0
  183.4270   22.8970   46.5240 C   0  0  0  0  0  0  0  0  0  0  0  0
  184.3080   23.2820   45.3610 C   0  0  0  0  0  0  0  0  0  0  0  0
  184.5380   24.6340   45.0590 C   0  0  0  0  0  0  0  0  0  0  0  0
  185.3670   24.9950   43.9930 C   0  0  0  0  0  0  0  0  0  0  0  0
  185.9800   24.0080   43.2250 C   0  0  0  0  0  0  0  0  0  0  0  0
  185.7650   22.6700   43.5320 C   0  0  0  0  0  0  0  0  0  0  0  0
  186.3600   21.7210   42.7960 F   0  0  0  0  0  0  0  0  0  0  0  0
  184.9420   22.2990   44.5900 C   0  0  0  0  0  0  0  0  0  0  0  0
  181.1200   20.6060   45.4510 C   0  0  0  0  0  0  0  0  0  0  0  0
  179.7750   20.2320   45.5030 C   0  0  0  0  0  0  0  0  0  0  0  0
  175.8260   21.3580   49.4310 C   0  0  0  0  0  0  0  0  0  0  0  0
  174.8240   21.0730   50.3180 N   0  0  0  0  0  0  0  0  0  0  0  0
  176.7810   22.0590   49.7450 O   0  0  0  0  0  0  0  0  0  0  0  0
  175.6384   18.9375   49.1743 H   0  0  0  0  0  0  0  0  0  0  0  0
  174.7407   18.8396   47.6215 H   0  0  0  0  0  0  0  0  0  0  0  0
  176.5370   18.8479   47.6215 H   0  0  0  0  0  0  0  0  0  0  0  0
  174.6701   21.1145   47.6171 H   0  0  0  0  0  0  0  0  0  0  0  0
  177.3100   21.8830   47.6200 H   0  0  0  0  0  0  0  0  0  0  0  0
  176.3220   21.6170   46.2910 H   0  0  0  0  0  0  0  0  0  0  0  0
  177.4570   19.2556   47.4629 H   0  0  0  0  0  0  0  0  0  0  0  0
  177.2426   19.7164   45.7341 H   0  0  0  0  0  0  0  0  0  0  0  0
  179.0556   21.2858   48.6636 H   0  0  0  0  0  0  0  0  0  0  0  0
  181.4559   21.9498   48.5644 H   0  0  0  0  0  0  0  0  0  0  0  0
  182.5300   23.5335   46.5400 H   0  0  0  0  0  0  0  0  0  0  0  0
  183.9661   23.0309   47.4735 H   0  0  0  0  0  0  0  0  0  0  0  0
  184.0611   25.4167   45.6673 H   0  0  0  0  0  0  0  0  0  0  0  0
  185.5350   26.0571   43.7610 H   0  0  0  0  0  0  0  0  0  0  0  0
  186.6295   24.2856   42.3817 H   0  0  0  0  0  0  0  0  0  0  0  0
  184.7890   21.2345   44.8212 H   0  0  0  0  0  0  0  0  0  0  0  0
  181.7036   20.4116   44.5391 H   0  0  0  0  0  0  0  0  0  0  0  0
  179.3099   19.7395   44.6363 H   0  0  0  0  0  0  0  0  0  0  0  0
  174.0670   20.5080   50.0400 H   0  0  0  0  0  0  0  0  0  0  0  0
  174.8590   21.4350   51.2330 H   0  0  0  0  0  0  0  0  0  0  0  0
  1  2  1  0
  2  3  1  0
  3  4  1  0
  4  5  1  0
  5  6  2  0
  6  7  1  0
  7  8  2  0
  8  9  1  0
  9 10  1  0
 10 11  1  0
 11 12  2  0
 12 13  1  0
 13 14  2  0
 14 15  1  0
 15 16  1  0
 15 17  2  0
  8 18  1  0
 18 19  2  0
  2 20  1  0
 20 21  1  0
 20 22  2  0
 19  5  1  0
 17 11  1  0
  1 23  1  0
  1 24  1  0
  1 25  1  0
  2 26  1  6
  3 27  1  0
  3 28  1  0
  4 29  1  0
  4 30  1  0
  6 31  1  0
  7 32  1  0
 10 33  1  0
 10 34  1  0
 12 35  1  0
 13 36  1  0
 14 37  1  0
 17 38  1  0
 18 39  1  0
 19 40  1  0
 21 41  1  0
 21 42  1  0
M  CHG  1   3   1
M  END
>  <meeko>  (9) 
{"is_sidechain": [false], "free_energy": -7.116, "intermolecular_energy": -9.812, "internal_energy": -0.782}

$$$$
