SAG_pdb_out
     RDKit          3D

 39 40  0  0  0  0  0  0  0  0999 V2000
  176.6680   23.7700   48.6380 C   0  0  0  0  0  0  0  0  0  0  0  0
  176.5530   22.5400   49.5280 C   0  0  2  0  0  0  0  0  0  0  0  0
  177.5500   21.5420   49.0620 N   0  0  0  0  0  0  0  0  0  0  0  0
  177.7490   21.5730   47.7860 C   0  0  0  0  0  0  0  0  0  0  0  0
  178.6970   20.6560   47.1250 C   0  0  0  0  0  0  0  0  0  0  0  0
  180.0700   20.9150   47.1320 C   0  0  0  0  0  0  0  0  0  0  0  0
  180.9550   20.0330   46.4990 C   0  0  0  0  0  0  0  0  0  0  0  0
  180.4670   18.8930   45.8590 C   0  0  0  0  0  0  0  0  0  0  0  0
  181.2150   17.9540   45.2060 O   0  0  0  0  0  0  0  0  0  0  0  0
  181.3430   18.0880   43.7930 C   0  0  0  0  0  0  0  0  0  0  0  0
  181.1750   16.7210   43.1800 C   0  0  0  0  0  0  0  0  0  0  0  0
  180.9350   15.6000   43.9910 C   0  0  0  0  0  0  0  0  0  0  0  0
  180.7610   14.3340   43.4240 C   0  0  0  0  0  0  0  0  0  0  0  0
  180.8180   14.1790   42.0400 C   0  0  0  0  0  0  0  0  0  0  0  0
  181.0410   15.2900   41.2360 C   0  0  0  0  0  0  0  0  0  0  0  0
  181.0860   15.1410   39.9050 F   0  0  0  0  0  0  0  0  0  0  0  0
  181.2150   16.5550   41.7890 C   0  0  0  0  0  0  0  0  0  0  0  0
  179.0920   18.6420   45.8560 C   0  0  0  0  0  0  0  0  0  0  0  0
  178.2030   19.5170   46.4870 C   0  0  0  0  0  0  0  0  0  0  0  0
  175.1510   21.9300   49.4090 C   0  0  0  0  0  0  0  0  0  0  0  0
  174.8400   21.0120   50.3730 N   0  0  0  0  0  0  0  0  0  0  0  0
  174.3620   22.2090   48.5130 O   0  0  0  0  0  0  0  0  0  0  0  0
  176.7521   24.6698   49.2651 H   0  0  0  0  0  0  0  0  0  0  0  0
  177.5617   23.6808   48.0029 H   0  0  0  0  0  0  0  0  0  0  0  0
  175.7732   23.8480   48.0029 H   0  0  0  0  0  0  0  0  0  0  0  0
  176.7330   22.8211   50.5761 H   0  0  0  0  0  0  0  0  0  0  0  0
  177.1967   22.3028   47.1758 H   0  0  0  0  0  0  0  0  0  0  0  0
  180.4566   21.8133   47.6356 H   0  0  0  0  0  0  0  0  0  0  0  0
  182.0355   20.2391   46.5064 H   0  0  0  0  0  0  0  0  0  0  0  0
  180.5668   18.7670   43.4103 H   0  0  0  0  0  0  0  0  0  0  0  0
  182.3280   18.5046   43.5356 H   0  0  0  0  0  0  0  0  0  0  0  0
  180.8834   15.7192   45.0833 H   0  0  0  0  0  0  0  0  0  0  0  0
  180.5794   13.4617   44.0690 H   0  0  0  0  0  0  0  0  0  0  0  0
  180.6874   13.1848   41.5878 H   0  0  0  0  0  0  0  0  0  0  0  0
  181.3837   17.4234   41.1353 H   0  0  0  0  0  0  0  0  0  0  0  0
  178.7047   17.7449   45.3509 H   0  0  0  0  0  0  0  0  0  0  0  0
  177.1227   19.3096   46.4808 H   0  0  0  0  0  0  0  0  0  0  0  0
  175.4890   20.8040   51.0830 H   0  0  0  0  0  0  0  0  0  0  0  0
  173.9650   20.5590   50.3580 H   0  0  0  0  0  0  0  0  0  0  0  0
  1  2  1  0
  2  3  1  0
  3  4  2  0
  4  5  1  0
  5  6  2  0
  6  7  1  0
  7  8  2  0
  8  9  1  0
  9 10  1  0
 10 11  1  0
 11 12  2  0
 12 13  1  0
 13 14  2  0
 14 15  1  0
 15 16  1  0
 15 17  2  0
  8 18  1  0
 18 19  2  0
  2 20  1  0
 20 21  1  0
 20 22  2  0
 19  5  1  0
 17 11  1  0
  1 23  1  0
  1 24  1  0
  1 25  1  0
  2 26  1  1
  4 27  1  0
  6 28  1  0
  7 29  1  0
 10 30  1  0
 10 31  1  0
 12 32  1  0
 13 33  1  0
 14 34  1  0
 17 35  1  0
 18 36  1  0
 19 37  1  0
 21 38  1  0
 21 39  1  0
M  END
>  <meeko>  (1) 
{"is_sidechain": [false], "free_energy": -8.316, "intermolecular_energy": -11.232, "internal_energy": -0.698}

$$$$
SAG_pdb_out
     RDKit          3D

 39 40  0  0  0  0  0  0  0  0999 V2000
  175.3310   22.2260   48.8480 C   0  0  0  0  0  0  0  0  0  0  0  0
  176.2740   23.2910   48.3070 C   0  0  2  0  0  0  0  0  0  0  0  0
  177.3410   22.6080   47.5300 N   0  0  0  0  0  0  0  0  0  0  0  0
  177.4340   21.3460   47.7880 C   0  0  0  0  0  0  0  0  0  0  0  0
  178.4370   20.4900   47.1250 C   0  0  0  0  0  0  0  0  0  0  0  0
  179.7830   20.8630   47.0810 C   0  0  0  0  0  0  0  0  0  0  0  0
  180.7200   20.0380   46.4460 C   0  0  0  0  0  0  0  0  0  0  0  0
  180.3110   18.8400   45.8560 C   0  0  0  0  0  0  0  0  0  0  0  0
  181.1150   17.9460   45.2090 O   0  0  0  0  0  0  0  0  0  0  0  0
  181.2620   18.1010   43.7990 C   0  0  0  0  0  0  0  0  0  0  0  0
  181.1350   16.7390   43.1670 C   0  0  0  0  0  0  0  0  0  0  0  0
  180.9240   15.6000   43.9620 C   0  0  0  0  0  0  0  0  0  0  0  0
  180.7880   14.3380   43.3770 C   0  0  0  0  0  0  0  0  0  0  0  0
  180.8550   14.2040   41.9910 C   0  0  0  0  0  0  0  0  0  0  0  0
  181.0500   15.3310   41.2030 C   0  0  0  0  0  0  0  0  0  0  0  0
  181.1050   15.2020   39.8700 F   0  0  0  0  0  0  0  0  0  0  0  0
  181.1870   16.5930   41.7740 C   0  0  0  0  0  0  0  0  0  0  0  0
  178.9620   18.4760   45.9060 C   0  0  0  0  0  0  0  0  0  0  0  0
  178.0220   19.2940   46.5380 C   0  0  0  0  0  0  0  0  0  0  0  0
  176.9220   24.0610   49.4650 C   0  0  0  0  0  0  0  0  0  0  0  0
  178.1960   24.4960   49.2260 N   0  0  0  0  0  0  0  0  0  0  0  0
  176.3690   24.2600   50.5410 O   0  0  0  0  0  0  0  0  0  0  0  0
  175.3482   22.2454   49.9477 H   0  0  0  0  0  0  0  0  0  0  0  0
  174.3092   22.4268   48.4937 H   0  0  0  0  0  0  0  0  0  0  0  0
  175.6540   21.2360   48.4937 H   0  0  0  0  0  0  0  0  0  0  0  0
  175.7146   23.9973   47.6759 H   0  0  0  0  0  0  0  0  0  0  0  0
  176.7476   20.8973   48.5212 H   0  0  0  0  0  0  0  0  0  0  0  0
  180.1071   21.8059   47.5457 H   0  0  0  0  0  0  0  0  0  0  0  0
  181.7789   20.3339   46.4120 H   0  0  0  0  0  0  0  0  0  0  0  0
  180.4765   18.7670   43.4124 H   0  0  0  0  0  0  0  0  0  0  0  0
  182.2410   18.5432   43.5624 H   0  0  0  0  0  0  0  0  0  0  0  0
  180.8653   15.7025   45.0556 H   0  0  0  0  0  0  0  0  0  0  0  0
  180.6284   13.4520   44.0091 H   0  0  0  0  0  0  0  0  0  0  0  0
  180.7541   13.2128   41.5248 H   0  0  0  0  0  0  0  0  0  0  0  0
  181.3358   17.4744   41.1330 H   0  0  0  0  0  0  0  0  0  0  0  0
  178.6365   17.5334   45.4417 H   0  0  0  0  0  0  0  0  0  0  0  0
  176.9633   18.9976   46.5726 H   0  0  0  0  0  0  0  0  0  0  0  0
  178.6180   24.3250   48.3530 H   0  0  0  0  0  0  0  0  0  0  0  0
  178.6890   24.9820   49.9250 H   0  0  0  0  0  0  0  0  0  0  0  0
  1  2  1  0
  2  3  1  0
  3  4  2  0
  4  5  1  0
  5  6  2  0
  6  7  1  0
  7  8  2  0
  8  9  1  0
  9 10  1  0
 10 11  1  0
 11 12  2  0
 12 13  1  0
 13 14  2  0
 14 15  1  0
 15 16  1  0
 15 17  2  0
  8 18  1  0
 18 19  2  0
  2 20  1  0
 20 21  1  0
 20 22  2  0
 19  5  1  0
 17 11  1  0
  1 23  1  0
  1 24  1  0
  1 25  1  0
  2 26  1  6
  4 27  1  0
  6 28  1  0
  7 29  1  0
 10 30  1  0
 10 31  1  0
 12 32  1  0
 13 33  1  0
 14 34  1  0
 17 35  1  0
 18 36  1  0
 19 37  1  0
 21 38  1  0
 21 39  1  0
M  END
>  <meeko>  (2) 
{"is_sidechain": [false], "free_energy": -8.214, "intermolecular_energy": -11.118, "internal_energy": -0.674}

$$$$
SAG_pdb_out
     RDKit          3D

 39 40  0  0  0  0  0  0  0  0999 V2000
  180.6880   14.5180   44.1690 C   0  0  0  0  0  0  0  0  0  0  0  0
  181.7330   15.3290   43.4140 C   0  0  2  0  0  0  0  0  0  0  0  0
  181.5720   16.7550   43.7990 N   0  0  0  0  0  0  0  0  0  0  0  0
  180.6830   16.9410   44.7170 C   0  0  0  0  0  0  0  0  0  0  0  0
  180.3700   18.2870   45.2340 C   0  0  0  0  0  0  0  0  0  0  0  0
  181.2940   19.3300   45.1270 C   0  0  0  0  0  0  0  0  0  0  0  0
  180.9790   20.6010   45.6230 C   0  0  0  0  0  0  0  0  0  0  0  0
  179.7400   20.8290   46.2260 C   0  0  0  0  0  0  0  0  0  0  0  0
  179.3050   22.0140   46.7490 O   0  0  0  0  0  0  0  0  0  0  0  0
  179.3350   22.1510   48.1680 C   0  0  0  0  0  0  0  0  0  0  0  0
  177.9130   22.2920   48.6490 C   0  0  0  0  0  0  0  0  0  0  0  0
  177.2510   23.5280   48.5670 C   0  0  0  0  0  0  0  0  0  0  0  0
  175.9270   23.6570   48.9960 C   0  0  0  0  0  0  0  0  0  0  0  0
  175.2500   22.5490   49.5040 C   0  0  0  0  0  0  0  0  0  0  0  0
  175.8990   21.3230   49.5730 C   0  0  0  0  0  0  0  0  0  0  0  0
  175.2450   20.2570   50.0520 F   0  0  0  0  0  0  0  0  0  0  0  0
  177.2170   21.1820   49.1490 C   0  0  0  0  0  0  0  0  0  0  0  0
  178.8220   19.7800   46.3280 C   0  0  0  0  0  0  0  0  0  0  0  0
  179.1300   18.5090   45.8340 C   0  0  0  0  0  0  0  0  0  0  0  0
  181.5130   15.1970   41.9020 C   0  0  0  0  0  0  0  0  0  0  0  0
  181.5870   16.3710   41.2050 N   0  0  0  0  0  0  0  0  0  0  0  0
  181.2610   14.1350   41.3420 O   0  0  0  0  0  0  0  0  0  0  0  0
  180.8426   14.6380   45.2515 H   0  0  0  0  0  0  0  0  0  0  0  0
  179.6827   14.8747   43.9004 H   0  0  0  0  0  0  0  0  0  0  0  0
  180.7840   13.4556   43.9004 H   0  0  0  0  0  0  0  0  0  0  0  0
  182.7401   14.9626   43.6621 H   0  0  0  0  0  0  0  0  0  0  0  0
  180.1446   16.0726   45.1245 H   0  0  0  0  0  0  0  0  0  0  0  0
  182.2703   19.1522   44.6524 H   0  0  0  0  0  0  0  0  0  0  0  0
  181.7079   21.4205   45.5377 H   0  0  0  0  0  0  0  0  0  0  0  0
  179.7961   21.2604   48.6200 H   0  0  0  0  0  0  0  0  0  0  0  0
  179.9266   23.0326   48.4559 H   0  0  0  0  0  0  0  0  0  0  0  0
  177.7797   24.4031   48.1612 H   0  0  0  0  0  0  0  0  0  0  0  0
  175.4199   24.6311   48.9329 H   0  0  0  0  0  0  0  0  0  0  0  0
  174.2095   22.6452   49.8476 H   0  0  0  0  0  0  0  0  0  0  0  0
  177.7120   20.2013   49.2060 H   0  0  0  0  0  0  0  0  0  0  0  0
  177.8455   19.9566   46.8026 H   0  0  0  0  0  0  0  0  0  0  0  0
  178.4003   17.6901   45.9177 H   0  0  0  0  0  0  0  0  0  0  0  0
  181.7910   17.2110   41.6770 H   0  0  0  0  0  0  0  0  0  0  0  0
  181.4390   16.3760   40.2320 H   0  0  0  0  0  0  0  0  0  0  0  0
  1  2  1  0
  2  3  1  0
  3  4  2  0
  4  5  1  0
  5  6  2  0
  6  7  1  0
  7  8  2  0
  8  9  1  0
  9 10  1  0
 10 11  1  0
 11 12  2  0
 12 13  1  0
 13 14  2  0
 14 15  1  0
 15 16  1  0
 15 17  2  0
  8 18  1  0
 18 19  2  0
  2 20  1  0
 20 21  1  0
 20 22  2  0
 19  5  1  0
 17 11  1  0
  1 23  1  0
  1 24  1  0
  1 25  1  0
  2 26  1  6
  4 27  1  0
  6 28  1  0
  7 29  1  0
 10 30  1  0
 10 31  1  0
 12 32  1  0
 13 33  1  0
 14 34  1  0
 17 35  1  0
 18 36  1  0
 19 37  1  0
 21 38  1  0
 21 39  1  0
M  END
>  <meeko>  (3) 
{"is_sidechain": [false], "free_energy": -7.624, "intermolecular_energy": -10.365, "internal_energy": -0.63}

$$$$
SAG_pdb_out
     RDKit          3D

 39 40  0  0  0  0  0  0  0  0999 V2000
  180.8000   14.5570   43.5300 C   0  0  0  0  0  0  0  0  0  0  0  0
  181.7840   15.4730   42.8150 C   0  0  2  0  0  0  0  0  0  0  0  0
  181.7330   16.8040   43.4730 N   0  0  0  0  0  0  0  0  0  0  0  0
  180.7890   16.9070   44.3490 C   0  0  0  0  0  0  0  0  0  0  0  0
  180.5680   18.1530   45.1080 C   0  0  0  0  0  0  0  0  0  0  0  0
  181.5110   19.1840   45.0880 C   0  0  0  0  0  0  0  0  0  0  0  0
  181.2830   20.3590   45.8160 C   0  0  0  0  0  0  0  0  0  0  0  0
  180.1120   20.5020   46.5640 C   0  0  0  0  0  0  0  0  0  0  0  0
  179.7650   21.5890   47.3150 O   0  0  0  0  0  0  0  0  0  0  0  0
  178.6080   22.3180   46.9130 C   0  0  0  0  0  0  0  0  0  0  0  0
  177.4180   21.7280   47.6250 C   0  0  0  0  0  0  0  0  0  0  0  0
  176.2280   21.4630   46.9290 C   0  0  0  0  0  0  0  0  0  0  0  0
  175.1290   20.8990   47.5830 C   0  0  0  0  0  0  0  0  0  0  0  0
  175.2130   20.5880   48.9390 C   0  0  0  0  0  0  0  0  0  0  0  0
  176.3940   20.8370   49.6270 C   0  0  0  0  0  0  0  0  0  0  0  0
  176.4760   20.5300   50.9280 F   0  0  0  0  0  0  0  0  0  0  0  0
  177.4950   21.3980   48.9860 C   0  0  0  0  0  0  0  0  0  0  0  0
  179.1750   19.4650   46.5770 C   0  0  0  0  0  0  0  0  0  0  0  0
  179.3950   18.2910   45.8530 C   0  0  0  0  0  0  0  0  0  0  0  0
  181.3820   15.6340   41.3430 C   0  0  0  0  0  0  0  0  0  0  0  0
  181.5520   16.8910   40.8350 N   0  0  0  0  0  0  0  0  0  0  0  0
  180.9180   14.7250   40.6630 O   0  0  0  0  0  0  0  0  0  0  0  0
  180.9195   14.6682   44.6178 H   0  0  0  0  0  0  0  0  0  0  0  0
  179.7729   14.8279   43.2444 H   0  0  0  0  0  0  0  0  0  0  0  0
  180.9968   13.5131   43.2444 H   0  0  0  0  0  0  0  0  0  0  0  0
  182.7958   15.0444   42.8653 H   0  0  0  0  0  0  0  0  0  0  0  0
  180.1330   16.0435   44.5338 H   0  0  0  0  0  0  0  0  0  0  0  0
  182.4338   19.0728   44.4997 H   0  0  0  0  0  0  0  0  0  0  0  0
  182.0266   21.1695   45.7986 H   0  0  0  0  0  0  0  0  0  0  0  0
  178.7199   23.3774   47.1870 H   0  0  0  0  0  0  0  0  0  0  0  0
  178.4735   22.2526   45.8232 H   0  0  0  0  0  0  0  0  0  0  0  0
  176.1597   21.7018   45.8574 H   0  0  0  0  0  0  0  0  0  0  0  0
  174.1998   20.7010   47.0287 H   0  0  0  0  0  0  0  0  0  0  0  0
  174.3502   20.1484   49.4609 H   0  0  0  0  0  0  0  0  0  0  0  0
  178.4238   21.5822   49.5459 H   0  0  0  0  0  0  0  0  0  0  0  0
  178.2520   19.5749   47.1652 H   0  0  0  0  0  0  0  0  0  0  0  0
  178.6503   17.4816   45.8695 H   0  0  0  0  0  0  0  0  0  0  0  0
  181.9270   17.6040   41.4000 H   0  0  0  0  0  0  0  0  0  0  0  0
  181.3000   17.0830   39.9020 H   0  0  0  0  0  0  0  0  0  0  0  0
  1  2  1  0
  2  3  1  0
  3  4  2  0
  4  5  1  0
  5  6  2  0
  6  7  1  0
  7  8  2  0
  8  9  1  0
  9 10  1  0
 10 11  1  0
 11 12  2  0
 12 13  1  0
 13 14  2  0
 14 15  1  0
 15 16  1  0
 15 17  2  0
  8 18  1  0
 18 19  2  0
  2 20  1  0
 20 21  1  0
 20 22  2  0
 19  5  1  0
 17 11  1  0
  1 23  1  0
  1 24  1  0
  1 25  1  0
  2 26  1  6
  4 27  1  0
  6 28  1  0
  7 29  1  0
 10 30  1  0
 10 31  1  0
 12 32  1  0
 13 33  1  0
 14 34  1  0
 17 35  1  0
 18 36  1  0
 19 37  1  0
 21 38  1  0
 21 39  1  0
M  END
>  <meeko>  (4) 
{"is_sidechain": [false], "free_energy": -7.595, "intermolecular_energy": -10.628, "internal_energy": -0.329}

$$$$
SAG_pdb_out
     RDKit          3D

 39 40  0  0  0  0  0  0  0  0999 V2000
  185.1610   22.5830   44.7510 C   0  0  0  0  0  0  0  0  0  0  0  0
  184.7490   23.2860   46.0360 C   0  0  2  0  0  0  0  0  0  0  0  0
  183.4410   22.7270   46.4660 N   0  0  0  0  0  0  0  0  0  0  0  0
  183.0320   21.7520   45.7240 C   0  0  0  0  0  0  0  0  0  0  0  0
  181.7510   21.0650   45.9810 C   0  0  0  0  0  0  0  0  0  0  0  0
  180.8070   21.6090   46.8550 C   0  0  0  0  0  0  0  0  0  0  0  0
  179.5980   20.9420   47.0870 C   0  0  0  0  0  0  0  0  0  0  0  0
  179.3330   19.7310   46.4440 C   0  0  0  0  0  0  0  0  0  0  0  0
  178.2000   18.9790   46.5780 O   0  0  0  0  0  0  0  0  0  0  0  0
  176.9640   19.5890   46.2120 C   0  0  0  0  0  0  0  0  0  0  0  0
  176.3380   20.1520   47.4620 C   0  0  0  0  0  0  0  0  0  0  0  0
  176.0210   19.3130   48.5420 C   0  0  0  0  0  0  0  0  0  0  0  0
  175.4560   19.8360   49.7100 C   0  0  0  0  0  0  0  0  0  0  0  0
  175.2100   21.2040   49.8100 C   0  0  0  0  0  0  0  0  0  0  0  0
  175.5350   22.0380   48.7470 C   0  0  0  0  0  0  0  0  0  0  0  0
  175.3060   23.3540   48.8480 F   0  0  0  0  0  0  0  0  0  0  0  0
  176.0980   21.5290   47.5800 C   0  0  0  0  0  0  0  0  0  0  0  0
  180.2840   19.1940   45.5710 C   0  0  0  0  0  0  0  0  0  0  0  0
  181.4920   19.8550   45.3350 C   0  0  0  0  0  0  0  0  0  0  0  0
  184.5850   24.7900   45.7870 C   0  0  0  0  0  0  0  0  0  0  0  0
  184.5380   25.5600   46.9160 N   0  0  0  0  0  0  0  0  0  0  0  0
  184.4750   25.2860   44.6700 O   0  0  0  0  0  0  0  0  0  0  0  0
  185.7031   21.6580   44.9967 H   0  0  0  0  0  0  0  0  0  0  0  0
  184.2640   22.3373   44.1636 H   0  0  0  0  0  0  0  0  0  0  0  0
  185.8137   23.2455   44.1636 H   0  0  0  0  0  0  0  0  0  0  0  0
  185.5186   23.1327   46.8069 H   0  0  0  0  0  0  0  0  0  0  0  0
  183.6547   21.4250   44.8783 H   0  0  0  0  0  0  0  0  0  0  0  0
  181.0138   22.5631   47.3619 H   0  0  0  0  0  0  0  0  0  0  0  0
  178.8564   21.3722   47.7762 H   0  0  0  0  0  0  0  0  0  0  0  0
  177.1458   20.3972   45.4883 H   0  0  0  0  0  0  0  0  0  0  0  0
  176.2946   18.8502   45.7472 H   0  0  0  0  0  0  0  0  0  0  0  0
  176.2189   18.2334   48.4691 H   0  0  0  0  0  0  0  0  0  0  0  0
  175.2063   19.1686   50.5480 H   0  0  0  0  0  0  0  0  0  0  0  0
  174.7617   21.6208   50.7240 H   0  0  0  0  0  0  0  0  0  0  0  0
  176.3543   22.2057   46.7515 H   0  0  0  0  0  0  0  0  0  0  0  0
  180.0786   18.2397   45.0639 H   0  0  0  0  0  0  0  0  0  0  0  0
  182.2334   19.4252   44.6454 H   0  0  0  0  0  0  0  0  0  0  0  0
  184.6290   25.1390   47.8020 H   0  0  0  0  0  0  0  0  0  0  0  0
  184.4150   26.5340   46.8440 H   0  0  0  0  0  0  0  0  0  0  0  0
  1  2  1  0
  2  3  1  0
  3  4  2  0
  4  5  1  0
  5  6  2  0
  6  7  1  0
  7  8  2  0
  8  9  1  0
  9 10  1  0
 10 11  1  0
 11 12  2  0
 12 13  1  0
 13 14  2  0
 14 15  1  0
 15 16  1  0
 15 17  2  0
  8 18  1  0
 18 19  2  0
  2 20  1  0
 20 21  1  0
 20 22  2  0
 19  5  1  0
 17 11  1  0
  1 23  1  0
  1 24  1  0
  1 25  1  0
  2 26  1  1
  4 27  1  0
  6 28  1  0
  7 29  1  0
 10 30  1  0
 10 31  1  0
 12 32  1  0
 13 33  1  0
 14 34  1  0
 17 35  1  0
 18 36  1  0
 19 37  1  0
 21 38  1  0
 21 39  1  0
M  END
>  <meeko>  (5) 
{"is_sidechain": [false], "free_energy": -7.503, "intermolecular_energy": -10.194, "internal_energy": -0.639}

$$$$
SAG_pdb_out
     RDKit          3D

 39 40  0  0  0  0  0  0  0  0999 V2000
  184.5330   24.0590   44.9610 C   0  0  0  0  0  0  0  0  0  0  0  0
  184.7020   23.3180   46.2800 C   0  0  2  0  0  0  0  0  0  0  0  0
  183.4020   22.6810   46.6180 N   0  0  0  0  0  0  0  0  0  0  0  0
  183.0760   21.7240   45.8140 C   0  0  0  0  0  0  0  0  0  0  0  0
  181.8180   20.9690   45.9760 C   0  0  0  0  0  0  0  0  0  0  0  0
  181.5930   19.7890   45.2620 C   0  0  0  0  0  0  0  0  0  0  0  0
  180.3920   19.0860   45.4290 C   0  0  0  0  0  0  0  0  0  0  0  0
  179.4190   19.5640   46.3080 C   0  0  0  0  0  0  0  0  0  0  0  0
  178.2100   18.9810   46.5650 O   0  0  0  0  0  0  0  0  0  0  0  0
  177.0430   19.7000   46.1770 C   0  0  0  0  0  0  0  0  0  0  0  0
  176.4010   20.2490   47.4250 C   0  0  0  0  0  0  0  0  0  0  0  0
  175.9990   19.3880   48.4590 C   0  0  0  0  0  0  0  0  0  0  0  0
  175.4200   19.8960   49.6260 C   0  0  0  0  0  0  0  0  0  0  0  0
  175.2440   21.2710   49.7720 C   0  0  0  0  0  0  0  0  0  0  0  0
  175.6540   22.1250   48.7560 C   0  0  0  0  0  0  0  0  0  0  0  0
  175.4920   23.4470   48.9010 F   0  0  0  0  0  0  0  0  0  0  0  0
  176.2310   21.6310   47.5900 C   0  0  0  0  0  0  0  0  0  0  0  0
  179.6540   20.7450   47.0180 C   0  0  0  0  0  0  0  0  0  0  0  0
  180.8490   21.4510   46.8570 C   0  0  0  0  0  0  0  0  0  0  0  0
  185.0750   24.3020   47.3950 C   0  0  0  0  0  0  0  0  0  0  0  0
  184.6120   25.5760   47.2170 N   0  0  0  0  0  0  0  0  0  0  0  0
  185.7580   23.9990   48.3680 O   0  0  0  0  0  0  0  0  0  0  0  0
  184.2925   25.1136   45.1611 H   0  0  0  0  0  0  0  0  0  0  0  0
  185.4679   23.9991   44.3844 H   0  0  0  0  0  0  0  0  0  0  0  0
  183.7165   23.5997   44.3844 H   0  0  0  0  0  0  0  0  0  0  0  0
  185.4992   22.5660   46.1853 H   0  0  0  0  0  0  0  0  0  0  0  0
  183.7535   21.4649   44.9871 H   0  0  0  0  0  0  0  0  0  0  0  0
  182.3589   19.4116   44.5685 H   0  0  0  0  0  0  0  0  0  0  0  0
  180.2162   18.1569   44.8669 H   0  0  0  0  0  0  0  0  0  0  0  0
  177.3190   20.5256   45.5045 H   0  0  0  0  0  0  0  0  0  0  0  0
  176.3436   19.0375   45.6459 H   0  0  0  0  0  0  0  0  0  0  0  0
  176.1411   18.3027   48.3497 H   0  0  0  0  0  0  0  0  0  0  0  0
  175.1040   19.2118   50.4273 H   0  0  0  0  0  0  0  0  0  0  0  0
  174.7839   21.6768   50.6850 H   0  0  0  0  0  0  0  0  0  0  0  0
  176.5533   22.3238   46.7987 H   0  0  0  0  0  0  0  0  0  0  0  0
  178.8888   21.1231   47.7119 H   0  0  0  0  0  0  0  0  0  0  0  0
  181.0246   22.3794   47.4202 H   0  0  0  0  0  0  0  0  0  0  0  0
  184.0650   25.7950   46.4280 H   0  0  0  0  0  0  0  0  0  0  0  0
  184.8250   26.2740   47.8790 H   0  0  0  0  0  0  0  0  0  0  0  0
  1  2  1  0
  2  3  1  0
  3  4  2  0
  4  5  1  0
  5  6  2  0
  6  7  1  0
  7  8  2  0
  8  9  1  0
  9 10  1  0
 10 11  1  0
 11 12  2  0
 12 13  1  0
 13 14  2  0
 14 15  1  0
 15 16  1  0
 15 17  2  0
  8 18  1  0
 18 19  2  0
  2 20  1  0
 20 21  1  0
 20 22  2  0
 19  5  1  0
 17 11  1  0
  1 23  1  0
  1 24  1  0
  1 25  1  0
  2 26  1  6
  4 27  1  0
  6 28  1  0
  7 29  1  0
 10 30  1  0
 10 31  1  0
 12 32  1  0
 13 33  1  0
 14 34  1  0
 17 35  1  0
 18 36  1  0
 19 37  1  0
 21 38  1  0
 21 39  1  0
M  END
>  <meeko>  (6) 
{"is_sidechain": [false], "free_energy": -7.469, "intermolecular_energy": -10.261, "internal_energy": -0.526}

$$$$
SAG_pdb_out
     RDKit          3D

 39 40  0  0  0  0  0  0  0  0999 V2000
  175.5880   19.2510   48.1460 C   0  0  0  0  0  0  0  0  0  0  0  0
  175.4970   20.7550   47.9290 C   0  0  2  0  0  0  0  0  0  0  0  0
  176.8130   21.2270   47.4290 N   0  0  0  0  0  0  0  0  0  0  0  0
  177.6940   20.2860   47.3360 C   0  0  0  0  0  0  0  0  0  0  0  0
  179.0670   20.5520   46.8650 C   0  0  0  0  0  0  0  0  0  0  0  0
  179.4930   20.1090   45.6100 C   0  0  0  0  0  0  0  0  0  0  0  0
  180.8010   20.3700   45.1800 C   0  0  0  0  0  0  0  0  0  0  0  0
  181.6800   21.0730   46.0050 C   0  0  0  0  0  0  0  0  0  0  0  0
  182.9760   21.3950   45.7120 O   0  0  0  0  0  0  0  0  0  0  0  0
  183.4650   22.6420   46.1980 C   0  0  0  0  0  0  0  0  0  0  0  0
  184.4870   23.1540   45.2150 C   0  0  0  0  0  0  0  0  0  0  0  0
  184.8660   24.5060   45.2180 C   0  0  0  0  0  0  0  0  0  0  0  0
  185.8270   24.9790   44.3200 C   0  0  0  0  0  0  0  0  0  0  0  0
  186.4240   24.1020   43.4160 C   0  0  0  0  0  0  0  0  0  0  0  0
  186.0610   22.7610   43.4210 C   0  0  0  0  0  0  0  0  0  0  0  0
  186.6410   21.9170   42.5580 F   0  0  0  0  0  0  0  0  0  0  0  0
  185.1050   22.2780   44.3110 C   0  0  0  0  0  0  0  0  0  0  0  0
  181.2450   21.5120   47.2590 C   0  0  0  0  0  0  0  0  0  0  0  0
  179.9410   21.2550   47.6930 C   0  0  0  0  0  0  0  0  0  0  0  0
  175.1880   21.4620   49.2550 C   0  0  0  0  0  0  0  0  0  0  0  0
  175.1400   20.6420   50.3480 N   0  0  0  0  0  0  0  0  0  0  0  0
  174.9720   22.6660   49.3480 O   0  0  0  0  0  0  0  0  0  0  0  0
  175.6010   19.0363   49.2248 H   0  0  0  0  0  0  0  0  0  0  0  0
  174.7179   18.7607   47.6850 H   0  0  0  0  0  0  0  0  0  0  0  0
  176.5109   18.8692   47.6850 H   0  0  0  0  0  0  0  0  0  0  0  0
  174.6966   20.9799   47.2087 H   0  0  0  0  0  0  0  0  0  0  0  0
  177.4130   19.2598   47.6153 H   0  0  0  0  0  0  0  0  0  0  0  0
  178.8009   19.5548   44.9589 H   0  0  0  0  0  0  0  0  0  0  0  0
  181.1349   20.0206   44.1919 H   0  0  0  0  0  0  0  0  0  0  0  0
  182.6365   23.3604   46.2840 H   0  0  0  0  0  0  0  0  0  0  0  0
  183.9195   22.5143   47.1916 H   0  0  0  0  0  0  0  0  0  0  0  0
  184.4019   25.1999   45.9343 H   0  0  0  0  0  0  0  0  0  0  0  0
  186.1116   26.0415   44.3267 H   0  0  0  0  0  0  0  0  0  0  0  0
  187.1774   24.4691   42.7035 H   0  0  0  0  0  0  0  0  0  0  0  0
  184.8352   21.2116   44.3049 H   0  0  0  0  0  0  0  0  0  0  0  0
  181.9362   22.0657   47.9114 H   0  0  0  0  0  0  0  0  0  0  0  0
  179.6070   21.6050   48.6809 H   0  0  0  0  0  0  0  0  0  0  0  0
  175.3180   19.6790   50.2480 H   0  0  0  0  0  0  0  0  0  0  0  0
  174.9290   21.0150   51.2340 H   0  0  0  0  0  0  0  0  0  0  0  0
  1  2  1  0
  2  3  1  0
  3  4  2  0
  4  5  1  0
  5  6  2  0
  6  7  1  0
  7  8  2  0
  8  9  1  0
  9 10  1  0
 10 11  1  0
 11 12  2  0
 12 13  1  0
 13 14  2  0
 14 15  1  0
 15 16  1  0
 15 17  2  0
  8 18  1  0
 18 19  2  0
  2 20  1  0
 20 21  1  0
 20 22  2  0
 19  5  1  0
 17 11  1  0
  1 23  1  0
  1 24  1  0
  1 25  1  0
  2 26  1  6
  4 27  1  0
  6 28  1  0
  7 29  1  0
 10 30  1  0
 10 31  1  0
 12 32  1  0
 13 33  1  0
 14 34  1  0
 17 35  1  0
 18 36  1  0
 19 37  1  0
 21 38  1  0
 21 39  1  0
M  END
>  <meeko>  (7) 
{"is_sidechain": [false], "free_energy": -7.019, "intermolecular_energy": -9.543, "internal_energy": -0.635}

$$$$
SAG_pdb_out
     RDKit          3D

 39 40  0  0  0  0  0  0  0  0999 V2000
  185.5370   23.6880   46.4030 C   0  0  0  0  0  0  0  0  0  0  0  0
  185.3170   23.2090   44.9750 C   0  0  2  0  0  0  0  0  0  0  0  0
  184.0950   22.3640   44.9580 N   0  0  0  0  0  0  0  0  0  0  0  0
  183.4940   22.3090   46.1000 C   0  0  0  0  0  0  0  0  0  0  0  0
  182.2640   21.5170   46.2930 C   0  0  0  0  0  0  0  0  0  0  0  0
  181.5140   21.6300   47.4660 C   0  0  0  0  0  0  0  0  0  0  0  0
  180.3500   20.8690   47.6320 C   0  0  0  0  0  0  0  0  0  0  0  0
  179.9350   19.9970   46.6230 C   0  0  0  0  0  0  0  0  0  0  0  0
  178.8250   19.2010   46.6530 O   0  0  0  0  0  0  0  0  0  0  0  0
  177.6130   19.7510   46.1430 C   0  0  0  0  0  0  0  0  0  0  0  0
  176.9050   20.4460   47.2780 C   0  0  0  0  0  0  0  0  0  0  0  0
  176.7540   21.8410   47.2780 C   0  0  0  0  0  0  0  0  0  0  0  0
  176.0820   22.4860   48.3210 C   0  0  0  0  0  0  0  0  0  0  0  0
  175.5490   21.7390   49.3700 C   0  0  0  0  0  0  0  0  0  0  0  0
  175.6860   20.3560   49.3650 C   0  0  0  0  0  0  0  0  0  0  0  0
  175.1650   19.6390   50.3690 F   0  0  0  0  0  0  0  0  0  0  0  0
  176.3520   19.7040   48.3320 C   0  0  0  0  0  0  0  0  0  0  0  0
  180.6920   19.8910   45.4520 C   0  0  0  0  0  0  0  0  0  0  0  0
  181.8550   20.6470   45.2810 C   0  0  0  0  0  0  0  0  0  0  0  0
  186.5090   22.3620   44.5120 C   0  0  0  0  0  0  0  0  0  0  0  0
  186.1800   21.2600   43.7730 N   0  0  0  0  0  0  0  0  0  0  0  0
  187.6750   22.6180   44.7940 O   0  0  0  0  0  0  0  0  0  0  0  0
  185.1839   22.9192   47.1061 H   0  0  0  0  0  0  0  0  0  0  0  0
  186.6092   23.8706   46.5674 H   0  0  0  0  0  0  0  0  0  0  0  0
  184.9769   24.6203   46.5674 H   0  0  0  0  0  0  0  0  0  0  0  0
  185.2105   24.0744   44.3043 H   0  0  0  0  0  0  0  0  0  0  0  0
  183.9102   22.8675   46.9514 H   0  0  0  0  0  0  0  0  0  0  0  0
  181.8382   22.3179   48.2608 H   0  0  0  0  0  0  0  0  0  0  0  0
  179.7623   20.9581   48.5576 H   0  0  0  0  0  0  0  0  0  0  0  0
  177.8375   20.4734   45.3445 H   0  0  0  0  0  0  0  0  0  0  0  0
  176.9779   18.9560   45.7251 H   0  0  0  0  0  0  0  0  0  0  0  0
  177.1685   22.4334   46.4490 H   0  0  0  0  0  0  0  0  0  0  0  0
  175.9743   23.5807   48.3135 H   0  0  0  0  0  0  0  0  0  0  0  0
  175.0236   22.2405   50.1961 H   0  0  0  0  0  0  0  0  0  0  0  0
  176.4448   18.6080   48.3419 H   0  0  0  0  0  0  0  0  0  0  0  0
  180.3682   19.2044   44.6559 H   0  0  0  0  0  0  0  0  0  0  0  0
  182.4435   20.5571   44.3560 H   0  0  0  0  0  0  0  0  0  0  0  0
  185.2370   21.0750   43.5580 H   0  0  0  0  0  0  0  0  0  0  0  0
  186.8870   20.6530   43.4530 H   0  0  0  0  0  0  0  0  0  0  0  0
  1  2  1  0
  2  3  1  0
  3  4  2  0
  4  5  1  0
  5  6  2  0
  6  7  1  0
  7  8  2  0
  8  9  1  0
  9 10  1  0
 10 11  1  0
 11 12  2  0
 12 13  1  0
 13 14  2  0
 14 15  1  0
 15 16  1  0
 15 17  2  0
  8 18  1  0
 18 19  2  0
  2 20  1  0
 20 21  1  0
 20 22  2  0
 19  5  1  0
 17 11  1  0
  1 23  1  0
  1 24  1  0
  1 25  1  0
  2 26  1  6
  4 27  1  0
  6 28  1  0
  7 29  1  0
 10 30  1  0
 10 31  1  0
 12 32  1  0
 13 33  1  0
 14 34  1  0
 17 35  1  0
 18 36  1  0
 19 37  1  0
 21 38  1  0
 21 39  1  0
M  END
>  <meeko>  (8) 
{"is_sidechain": [false], "free_energy": -6.811, "intermolecular_energy": -9.106, "internal_energy": -0.792}

$$$$
SAG_pdb_out
     RDKit          3D

 39 40  0  0  0  0  0  0  0  0999 V2000
  175.6050   18.4730   46.7900 C   0  0  0  0  0  0  0  0  0  0  0  0
  175.4620   19.9700   47.0310 C   0  0  2  0  0  0  0  0  0  0  0  0
  176.7700   20.6090   46.7360 N   0  0  0  0  0  0  0  0  0  0  0  0
  177.7820   19.8470   46.9890 C   0  0  0  0  0  0  0  0  0  0  0  0
  179.1690   20.2990   46.7690 C   0  0  0  0  0  0  0  0  0  0  0  0
  179.8830   19.9010   45.6350 C   0  0  0  0  0  0  0  0  0  0  0  0
  181.1990   20.3410   45.4440 C   0  0  0  0  0  0  0  0  0  0  0  0
  181.8000   21.1780   46.3860 C   0  0  0  0  0  0  0  0  0  0  0  0
  183.0700   21.6780   46.3240 O   0  0  0  0  0  0  0  0  0  0  0  0
  183.6260   21.8900   45.0280 C   0  0  0  0  0  0  0  0  0  0  0  0
  184.5730   23.0590   45.1160 C   0  0  0  0  0  0  0  0  0  0  0  0
  185.4530   23.3460   44.0610 C   0  0  0  0  0  0  0  0  0  0  0  0
  186.3200   24.4410   44.1320 C   0  0  0  0  0  0  0  0  0  0  0  0
  186.3100   25.2620   45.2580 C   0  0  0  0  0  0  0  0  0  0  0  0
  185.4290   24.9880   46.2980 C   0  0  0  0  0  0  0  0  0  0  0  0
  185.4130   25.7840   47.3750 F   0  0  0  0  0  0  0  0  0  0  0  0
  184.5620   23.9020   46.2370 C   0  0  0  0  0  0  0  0  0  0  0  0
  181.0780   21.5710   47.5170 C   0  0  0  0  0  0  0  0  0  0  0  0
  179.7640   21.1360   47.7130 C   0  0  0  0  0  0  0  0  0  0  0  0
  175.1010   20.2360   48.4980 C   0  0  0  0  0  0  0  0  0  0  0  0
  174.3330   21.3470   48.7090 N   0  0  0  0  0  0  0  0  0  0  0  0
  175.4830   19.5360   49.4300 O   0  0  0  0  0  0  0  0  0  0  0  0
  175.6550   17.9492   47.7560 H   0  0  0  0  0  0  0  0  0  0  0  0
  174.7375   18.1089   46.2200 H   0  0  0  0  0  0  0  0  0  0  0  0
  176.5257   18.2797   46.2200 H   0  0  0  0  0  0  0  0  0  0  0  0
  174.6684   20.3773   46.3873 H   0  0  0  0  0  0  0  0  0  0  0  0
  177.6048   18.8338   47.3790 H   0  0  0  0  0  0  0  0  0  0  0  0
  179.4108   19.2416   44.8919 H   0  0  0  0  0  0  0  0  0  0  0  0
  181.7594   20.0268   44.5511 H   0  0  0  0  0  0  0  0  0  0  0  0
  184.1708   20.9912   44.7034 H   0  0  0  0  0  0  0  0  0  0  0  0
  182.8292   22.0963   44.2982 H   0  0  0  0  0  0  0  0  0  0  0  0
  185.4608   22.7027   43.1687 H   0  0  0  0  0  0  0  0  0  0  0  0
  187.0084   24.6538   43.3008 H   0  0  0  0  0  0  0  0  0  0  0  0
  186.9943   26.1207   45.3235 H   0  0  0  0  0  0  0  0  0  0  0  0
  183.8682   23.7044   47.0674 H   0  0  0  0  0  0  0  0  0  0  0  0
  181.5493   22.2300   48.2611 H   0  0  0  0  0  0  0  0  0  0  0  0
  179.2033   21.4515   48.6052 H   0  0  0  0  0  0  0  0  0  0  0  0
  174.0370   21.8930   47.9450 H   0  0  0  0  0  0  0  0  0  0  0  0
  174.0730   21.5990   49.6250 H   0  0  0  0  0  0  0  0  0  0  0  0
  1  2  1  0
  2  3  1  0
  3  4  2  0
  4  5  1  0
  5  6  2  0
  6  7  1  0
  7  8  2  0
  8  9  1  0
  9 10  1  0
 10 11  1  0
 11 12  2  0
 12 13  1  0
 13 14  2  0
 14 15  1  0
 15 16  1  0
 15 17  2  0
  8 18  1  0
 18 19  2  0
  2 20  1  0
 20 21  1  0
 20 22  2  0
 19  5  1  0
 17 11  1  0
  1 23  1  0
  1 24  1  0
  1 25  1  0
  2 26  1  6
  4 27  1  0
  6 28  1  0
  7 29  1  0
 10 30  1  0
 10 31  1  0
 12 32  1  0
 13 33  1  0
 14 34  1  0
 17 35  1  0
 18 36  1  0
 19 37  1  0
 21 38  1  0
 21 39  1  0
M  END
>  <meeko>  (9) 
{"is_sidechain": [false], "free_energy": -6.66, "intermolecular_energy": -9.095, "internal_energy": -0.599}

$$$$
