selegiline_out
     RDKit          3D

 32 32  0  0  0  0  0  0  0  0999 V2000
  178.5290   24.0290   47.3480 C   0  0  0  0  0  0  0  0  0  0  0  0
  177.6310   23.5950   48.0180 C   0  0  0  0  0  0  0  0  0  0  0  0
  176.5270   23.0700   48.8400 C   0  0  0  0  0  0  0  0  0  0  0  0
  176.4790   21.5980   48.8080 N   0  0  1  0  0  0  0  0  0  0  0  0
  175.3390   21.0910   49.5760 C   0  0  0  0  0  0  0  0  0  0  0  0
  176.5500   21.0750   47.4190 C   0  0  2  0  0  0  0  0  0  0  0  0
  175.1820   20.7520   46.7950 C   0  0  0  0  0  0  0  0  0  0  0  0
  177.5040   19.8500   47.3510 C   0  0  0  0  0  0  0  0  0  0  0  0
  178.9130   20.1980   46.9180 C   0  0  0  0  0  0  0  0  0  0  0  0
  179.8660   20.6160   47.8560 C   0  0  0  0  0  0  0  0  0  0  0  0
  181.1650   20.9270   47.4540 C   0  0  0  0  0  0  0  0  0  0  0  0
  181.5250   20.8230   46.1110 C   0  0  0  0  0  0  0  0  0  0  0  0
  180.5840   20.4110   45.1700 C   0  0  0  0  0  0  0  0  0  0  0  0
  179.2840   20.1000   45.5700 C   0  0  0  0  0  0  0  0  0  0  0  0
  179.3511   24.4263   46.7346 H   0  0  0  0  0  0  0  0  0  0  0  0
  176.6681   23.4000   49.8798 H   0  0  0  0  0  0  0  0  0  0  0  0
  175.5809   23.4539   48.4307 H   0  0  0  0  0  0  0  0  0  0  0  0
  177.3120   21.2400   49.2730 H   0  0  0  0  0  0  0  0  0  0  0  0
  175.5504   21.1850   50.6514 H   0  0  0  0  0  0  0  0  0  0  0  0
  174.4404   21.6743   49.3266 H   0  0  0  0  0  0  0  0  0  0  0  0
  175.1703   20.0330   49.3266 H   0  0  0  0  0  0  0  0  0  0  0  0
  176.9587   21.8916   46.8058 H   0  0  0  0  0  0  0  0  0  0  0  0
  174.4463   20.5783   47.5941 H   0  0  0  0  0  0  0  0  0  0  0  0
  174.8542   21.5974   46.1723 H   0  0  0  0  0  0  0  0  0  0  0  0
  175.2670   19.8492   46.1723 H   0  0  0  0  0  0  0  0  0  0  0  0
  177.5511   19.3909   48.3495 H   0  0  0  0  0  0  0  0  0  0  0  0
  177.0948   19.1660   46.5930 H   0  0  0  0  0  0  0  0  0  0  0  0
  179.5879   20.6995   48.9170 H   0  0  0  0  0  0  0  0  0  0  0  0
  181.9064   21.2548   48.1976 H   0  0  0  0  0  0  0  0  0  0  0  0
  182.5503   21.0659   45.7950 H   0  0  0  0  0  0  0  0  0  0  0  0
  180.8663   20.3307   44.1099 H   0  0  0  0  0  0  0  0  0  0  0  0
  178.5452   19.7757   44.8223 H   0  0  0  0  0  0  0  0  0  0  0  0
  1  2  3  0
  2  3  1  0
  3  4  1  0
  4  5  1  0
  4  6  1  0
  6  7  1  0
  6  8  1  0
  8  9  1  0
  9 10  2  0
 10 11  1  0
 11 12  2  0
 12 13  1  0
 13 14  2  0
 14  9  1  0
  1 15  1  0
  3 16  1  0
  3 17  1  0
  4 18  1  1
  5 19  1  0
  5 20  1  0
  5 21  1  0
  6 22  1  6
  7 23  1  0
  7 24  1  0
  7 25  1  0
  8 26  1  0
  8 27  1  0
 10 28  1  0
 11 29  1  0
 12 30  1  0
 13 31  1  0
 14 32  1  0
M  CHG  1   4   1
M  END
>  <meeko>  (1) 
{"is_sidechain": [false], "free_energy": -5.61, "intermolecular_energy": -6.922, "internal_energy": -0.918}

$$$$
selegiline_out
     RDKit          3D

 32 32  0  0  0  0  0  0  0  0999 V2000
  175.4440   18.1440   46.9390 C   0  0  0  0  0  0  0  0  0  0  0  0
  175.2350   19.3130   47.1180 C   0  0  0  0  0  0  0  0  0  0  0  0
  174.9730   20.7470   47.3320 C   0  0  0  0  0  0  0  0  0  0  0  0
  175.3950   21.1810   48.6750 N   0  0  1  0  0  0  0  0  0  0  0  0
  175.5130   20.0400   49.5850 C   0  0  0  0  0  0  0  0  0  0  0  0
  176.6090   22.0370   48.6200 C   0  0  2  0  0  0  0  0  0  0  0  0
  176.3970   23.4670   49.1430 C   0  0  0  0  0  0  0  0  0  0  0  0
  177.2030   22.0440   47.1840 C   0  0  0  0  0  0  0  0  0  0  0  0
  178.5140   21.2960   47.0620 C   0  0  0  0  0  0  0  0  0  0  0  0
  178.6090   20.1470   46.2650 C   0  0  0  0  0  0  0  0  0  0  0  0
  179.8220   19.4670   46.1490 C   0  0  0  0  0  0  0  0  0  0  0  0
  180.9490   19.9270   46.8280 C   0  0  0  0  0  0  0  0  0  0  0  0
  180.8640   21.0660   47.6250 C   0  0  0  0  0  0  0  0  0  0  0  0
  179.6530   21.7480   47.7430 C   0  0  0  0  0  0  0  0  0  0  0  0
  175.6354   17.0733   46.7750 H   0  0  0  0  0  0  0  0  0  0  0  0
  175.5265   21.3272   46.5790 H   0  0  0  0  0  0  0  0  0  0  0  0
  173.8900   20.9162   47.2403 H   0  0  0  0  0  0  0  0  0  0  0  0
  174.6650   21.7770   49.0640 H   0  0  0  0  0  0  0  0  0  0  0  0
  175.4762   20.3954   50.6254 H   0  0  0  0  0  0  0  0  0  0  0  0
  174.6823   19.3413   49.4066 H   0  0  0  0  0  0  0  0  0  0  0  0
  176.4691   19.5261   49.4066 H   0  0  0  0  0  0  0  0  0  0  0  0
  177.3334   21.5829   49.3121 H   0  0  0  0  0  0  0  0  0  0  0  0
  176.3982   23.4591   50.2430 H   0  0  0  0  0  0  0  0  0  0  0  0
  177.2090   24.1143   48.7801 H   0  0  0  0  0  0  0  0  0  0  0  0
  175.4321   23.8509   48.7801 H   0  0  0  0  0  0  0  0  0  0  0  0
  176.4736   21.5788   46.5046 H   0  0  0  0  0  0  0  0  0  0  0  0
  177.4076   23.0937   46.9267 H   0  0  0  0  0  0  0  0  0  0  0  0
  177.7223   19.7792   45.7279 H   0  0  0  0  0  0  0  0  0  0  0  0
  179.8889   18.5666   45.5207 H   0  0  0  0  0  0  0  0  0  0  0  0
  181.9049   19.3908   46.7345 H   0  0  0  0  0  0  0  0  0  0  0  0
  181.7530   21.4282   48.1621 H   0  0  0  0  0  0  0  0  0  0  0  0
  179.5913   22.6465   48.3746 H   0  0  0  0  0  0  0  0  0  0  0  0
  1  2  3  0
  2  3  1  0
  3  4  1  0
  4  5  1  0
  4  6  1  0
  6  7  1  0
  6  8  1  0
  8  9  1  0
  9 10  2  0
 10 11  1  0
 11 12  2  0
 12 13  1  0
 13 14  2  0
 14  9  1  0
  1 15  1  0
  3 16  1  0
  3 17  1  0
  4 18  1  1
  5 19  1  0
  5 20  1  0
  5 21  1  0
  6 22  1  1
  7 23  1  0
  7 24  1  0
  7 25  1  0
  8 26  1  0
  8 27  1  0
 10 28  1  0
 11 29  1  0
 12 30  1  0
 13 31  1  0
 14 32  1  0
M  CHG  1   4   1
M  END
>  <meeko>  (2) 
{"is_sidechain": [false], "free_energy": -5.449, "intermolecular_energy": -7.376, "internal_energy": -0.266}

$$$$
selegiline_out
     RDKit          3D

 32 32  0  0  0  0  0  0  0  0999 V2000
  175.4730   18.1510   46.9730 C   0  0  0  0  0  0  0  0  0  0  0  0
  175.2370   19.3120   47.1720 C   0  0  0  0  0  0  0  0  0  0  0  0
  174.9420   20.7350   47.4120 C   0  0  0  0  0  0  0  0  0  0  0  0
  175.4110   21.1720   48.7370 N   0  0  1  0  0  0  0  0  0  0  0  0
  175.5710   20.0310   49.6420 C   0  0  0  0  0  0  0  0  0  0  0  0
  176.6170   22.0360   48.6380 C   0  0  2  0  0  0  0  0  0  0  0  0
  176.3990   23.4790   49.1210 C   0  0  0  0  0  0  0  0  0  0  0  0
  177.1880   22.0040   47.1940 C   0  0  0  0  0  0  0  0  0  0  0  0
  178.5190   21.2930   47.0790 C   0  0  0  0  0  0  0  0  0  0  0  0
  179.6460   21.7730   47.7600 C   0  0  0  0  0  0  0  0  0  0  0  0
  180.8690   21.1090   47.6580 C   0  0  0  0  0  0  0  0  0  0  0  0
  180.9780   19.9600   46.8760 C   0  0  0  0  0  0  0  0  0  0  0  0
  179.8640   19.4770   46.1930 C   0  0  0  0  0  0  0  0  0  0  0  0
  178.6400   20.1390   46.2930 C   0  0  0  0  0  0  0  0  0  0  0  0
  175.6891   17.0879   46.7908 H   0  0  0  0  0  0  0  0  0  0  0  0
  175.4424   21.3380   46.6400 H   0  0  0  0  0  0  0  0  0  0  0  0
  173.8511   20.8706   47.3724 H   0  0  0  0  0  0  0  0  0  0  0  0
  174.6920   21.7620   49.1550 H   0  0  0  0  0  0  0  0  0  0  0  0
  175.5221   20.3799   50.6841 H   0  0  0  0  0  0  0  0  0  0  0  0
  174.7661   19.3035   49.4607 H   0  0  0  0  0  0  0  0  0  0  0  0
  176.5450   19.5530   49.4607 H   0  0  0  0  0  0  0  0  0  0  0  0
  177.3567   21.6101   49.3318 H   0  0  0  0  0  0  0  0  0  0  0  0
  176.3957   23.5010   50.2208 H   0  0  0  0  0  0  0  0  0  0  0  0
  177.2107   24.1185   48.7439 H   0  0  0  0  0  0  0  0  0  0  0  0
  175.4346   23.8501   48.7439 H   0  0  0  0  0  0  0  0  0  0  0  0
  176.4631   21.4899   46.5457 H   0  0  0  0  0  0  0  0  0  0  0  0
  177.3557   23.0485   46.8926 H   0  0  0  0  0  0  0  0  0  0  0  0
  179.5659   22.6789   48.3788 H   0  0  0  0  0  0  0  0  0  0  0  0
  181.7486   21.4928   48.1955 H   0  0  0  0  0  0  0  0  0  0  0  0
  181.9419   19.4357   46.7984 H   0  0  0  0  0  0  0  0  0  0  0  0
  179.9496   18.5719   45.5737 H   0  0  0  0  0  0  0  0  0  0  0  0
  177.7641   19.7526   45.7513 H   0  0  0  0  0  0  0  0  0  0  0  0
  1  2  3  0
  2  3  1  0
  3  4  1  0
  4  5  1  0
  4  6  1  0
  6  7  1  0
  6  8  1  0
  8  9  1  0
  9 10  2  0
 10 11  1  0
 11 12  2  0
 12 13  1  0
 13 14  2  0
 14  9  1  0
  1 15  1  0
  3 16  1  0
  3 17  1  0
  4 18  1  1
  5 19  1  0
  5 20  1  0
  5 21  1  0
  6 22  1  1
  7 23  1  0
  7 24  1  0
  7 25  1  0
  8 26  1  0
  8 27  1  0
 10 28  1  0
 11 29  1  0
 12 30  1  0
 13 31  1  0
 14 32  1  0
M  CHG  1   4   1
M  END
>  <meeko>  (3) 
{"is_sidechain": [false], "free_energy": -5.449, "intermolecular_energy": -7.37, "internal_energy": -0.271}

$$$$
selegiline_out
     RDKit          3D

 32 32  0  0  0  0  0  0  0  0999 V2000
  178.3650   23.8480   47.4320 C   0  0  0  0  0  0  0  0  0  0  0  0
  179.0720   22.8770   47.4320 C   0  0  0  0  0  0  0  0  0  0  0  0
  179.9410   21.6870   47.4400 C   0  0  0  0  0  0  0  0  0  0  0  0
  179.7760   20.8870   46.2140 N   0  0  1  0  0  0  0  0  0  0  0  0
  181.0600   20.6890   45.5370 C   0  0  0  0  0  0  0  0  0  0  0  0
  179.0320   19.6270   46.4760 C   0  0  2  0  0  0  0  0  0  0  0  0
  179.6690   18.3760   45.8470 C   0  0  0  0  0  0  0  0  0  0  0  0
  177.5450   19.7770   46.0490 C   0  0  0  0  0  0  0  0  0  0  0  0
  176.6240   20.1820   47.1800 C   0  0  0  0  0  0  0  0  0  0  0  0
  176.5990   19.4520   48.3760 C   0  0  0  0  0  0  0  0  0  0  0  0
  175.7540   19.8340   49.4190 C   0  0  0  0  0  0  0  0  0  0  0  0
  174.9270   20.9470   49.2770 C   0  0  0  0  0  0  0  0  0  0  0  0
  174.9420   21.6770   48.0900 C   0  0  0  0  0  0  0  0  0  0  0  0
  175.7860   21.2970   47.0460 C   0  0  0  0  0  0  0  0  0  0  0  0
  177.7175   24.7373   47.4320 H   0  0  0  0  0  0  0  0  0  0  0  0
  180.9894   22.0110   47.5165 H   0  0  0  0  0  0  0  0  0  0  0  0
  179.6596   21.0612   48.2998 H   0  0  0  0  0  0  0  0  0  0  0  0
  179.1920   21.4120   45.5640 H   0  0  0  0  0  0  0  0  0  0  0  0
  181.8550   20.5664   46.2873 H   0  0  0  0  0  0  0  0  0  0  0  0
  181.0077   19.7883   44.9077 H   0  0  0  0  0  0  0  0  0  0  0  0
  181.2814   21.5636   44.9077 H   0  0  0  0  0  0  0  0  0  0  0  0
  179.0852   19.4617   47.5622 H   0  0  0  0  0  0  0  0  0  0  0  0
  180.0133   17.6999   46.6435 H   0  0  0  0  0  0  0  0  0  0  0  0
  178.9243   17.8592   45.2239 H   0  0  0  0  0  0  0  0  0  0  0  0
  180.5250   18.6743   45.2239 H   0  0  0  0  0  0  0  0  0  0  0  0
  177.4855   20.5430   45.2617 H   0  0  0  0  0  0  0  0  0  0  0  0
  177.2099   18.7890   45.7003 H   0  0  0  0  0  0  0  0  0  0  0  0
  177.2493   18.5726   48.4934 H   0  0  0  0  0  0  0  0  0  0  0  0
  175.7406   19.2558   50.3547 H   0  0  0  0  0  0  0  0  0  0  0  0
  174.2634   21.2487   50.1008 H   0  0  0  0  0  0  0  0  0  0  0  0
  174.2877   22.5538   47.9760 H   0  0  0  0  0  0  0  0  0  0  0  0
  175.7936   21.8768   46.1112 H   0  0  0  0  0  0  0  0  0  0  0  0
  1  2  3  0
  2  3  1  0
  3  4  1  0
  4  5  1  0
  4  6  1  0
  6  7  1  0
  6  8  1  0
  8  9  1  0
  9 10  2  0
 10 11  1  0
 11 12  2  0
 12 13  1  0
 13 14  2  0
 14  9  1  0
  1 15  1  0
  3 16  1  0
  3 17  1  0
  4 18  1  6
  5 19  1  0
  5 20  1  0
  5 21  1  0
  6 22  1  1
  7 23  1  0
  7 24  1  0
  7 25  1  0
  8 26  1  0
  8 27  1  0
 10 28  1  0
 11 29  1  0
 12 30  1  0
 13 31  1  0
 14 32  1  0
M  CHG  1   4   1
M  END
>  <meeko>  (4) 
{"is_sidechain": [false], "free_energy": -5.428, "intermolecular_energy": -6.788, "internal_energy": -0.828}

$$$$
selegiline_out
     RDKit          3D

 32 32  0  0  0  0  0  0  0  0999 V2000
  176.7210   24.0100   49.0760 C   0  0  0  0  0  0  0  0  0  0  0  0
  176.0260   23.0350   48.9730 C   0  0  0  0  0  0  0  0  0  0  0  0
  175.1680   21.8440   48.8460 C   0  0  0  0  0  0  0  0  0  0  0  0
  175.9510   20.6440   48.5080 N   0  0  1  0  0  0  0  0  0  0  0  0
  175.8740   19.6450   49.5770 C   0  0  0  0  0  0  0  0  0  0  0  0
  175.5980   20.1170   47.1630 C   0  0  2  0  0  0  0  0  0  0  0  0
  175.5270   18.5830   47.0860 C   0  0  0  0  0  0  0  0  0  0  0  0
  176.5580   20.6930   46.0870 C   0  0  0  0  0  0  0  0  0  0  0  0
  178.0210   20.5990   46.4620 C   0  0  0  0  0  0  0  0  0  0  0  0
  178.7290   19.4030   46.2860 C   0  0  0  0  0  0  0  0  0  0  0  0
  180.0800   19.3240   46.6260 C   0  0  0  0  0  0  0  0  0  0  0  0
  180.7370   20.4390   47.1430 C   0  0  0  0  0  0  0  0  0  0  0  0
  180.0420   21.6330   47.3250 C   0  0  0  0  0  0  0  0  0  0  0  0
  178.6910   21.7140   46.9860 C   0  0  0  0  0  0  0  0  0  0  0  0
  177.3571   24.9024   49.1703 H   0  0  0  0  0  0  0  0  0  0  0  0
  174.6496   21.6743   49.8012 H   0  0  0  0  0  0  0  0  0  0  0  0
  174.4480   22.0243   48.0341 H   0  0  0  0  0  0  0  0  0  0  0  0
  176.9330   20.9090   48.4410 H   0  0  0  0  0  0  0  0  0  0  0  0
  175.9129   20.1494   50.5537 H   0  0  0  0  0  0  0  0  0  0  0  0
  174.9302   19.0868   49.4899 H   0  0  0  0  0  0  0  0  0  0  0  0
  176.7211   18.9487   49.4899 H   0  0  0  0  0  0  0  0  0  0  0  0
  174.5736   20.4617   46.9587 H   0  0  0  0  0  0  0  0  0  0  0  0
  175.5077   18.1653   48.1034 H   0  0  0  0  0  0  0  0  0  0  0  0
  174.6141   18.2847   46.5497 H   0  0  0  0  0  0  0  0  0  0  0  0
  176.4084   18.2016   46.5497 H   0  0  0  0  0  0  0  0  0  0  0  0
  176.4034   20.1369   45.1506 H   0  0  0  0  0  0  0  0  0  0  0  0
  176.3210   21.7623   45.9850 H   0  0  0  0  0  0  0  0  0  0  0  0
  178.2163   18.5200   45.8769 H   0  0  0  0  0  0  0  0  0  0  0  0
  180.6273   18.3802   46.4857 H   0  0  0  0  0  0  0  0  0  0  0  0
  181.8030   20.3766   47.4071 H   0  0  0  0  0  0  0  0  0  0  0  0
  180.5590   22.5125   47.7363 H   0  0  0  0  0  0  0  0  0  0  0  0
  178.1475   22.6593   47.1308 H   0  0  0  0  0  0  0  0  0  0  0  0
  1  2  3  0
  2  3  1  0
  3  4  1  0
  4  5  1  0
  4  6  1  0
  6  7  1  0
  6  8  1  0
  8  9  1  0
  9 10  2  0
 10 11  1  0
 11 12  2  0
 12 13  1  0
 13 14  2  0
 14  9  1  0
  1 15  1  0
  3 16  1  0
  3 17  1  0
  4 18  1  6
  5 19  1  0
  5 20  1  0
  5 21  1  0
  6 22  1  6
  7 23  1  0
  7 24  1  0
  7 25  1  0
  8 26  1  0
  8 27  1  0
 10 28  1  0
 11 29  1  0
 12 30  1  0
 13 31  1  0
 14 32  1  0
M  CHG  1   4   1
M  END
>  <meeko>  (5) 
{"is_sidechain": [false], "free_energy": -5.349, "intermolecular_energy": -7.016, "internal_energy": -0.503}

$$$$
selegiline_out
     RDKit          3D

 32 32  0  0  0  0  0  0  0  0999 V2000
  175.4940   20.1020   50.0370 C   0  0  0  0  0  0  0  0  0  0  0  0
  175.1910   20.2930   48.8900 C   0  0  0  0  0  0  0  0  0  0  0  0
  174.8120   20.5270   47.4860 C   0  0  0  0  0  0  0  0  0  0  0  0
  175.9470   21.0310   46.6940 N   0  0  1  0  0  0  0  0  0  0  0  0
  176.5750   22.1830   47.3460 C   0  0  0  0  0  0  0  0  0  0  0  0
  176.8990   19.9450   46.3430 C   0  0  2  0  0  0  0  0  0  0  0  0
  176.2490   18.5600   46.1950 C   0  0  0  0  0  0  0  0  0  0  0  0
  178.0780   19.9100   47.3550 C   0  0  0  0  0  0  0  0  0  0  0  0
  179.4430   19.9670   46.7030 C   0  0  0  0  0  0  0  0  0  0  0  0
  179.8510   18.9660   45.8110 C   0  0  0  0  0  0  0  0  0  0  0  0
  181.1070   19.0280   45.2060 C   0  0  0  0  0  0  0  0  0  0  0  0
  181.9670   20.0880   45.4880 C   0  0  0  0  0  0  0  0  0  0  0  0
  181.5720   21.0850   46.3760 C   0  0  0  0  0  0  0  0  0  0  0  0
  180.3170   21.0260   46.9820 C   0  0  0  0  0  0  0  0  0  0  0  0
  175.7714   19.9272   51.0870 H   0  0  0  0  0  0  0  0  0  0  0  0
  174.4637   19.5801   47.0478 H   0  0  0  0  0  0  0  0  0  0  0  0
  174.0157   21.2856   47.4668 H   0  0  0  0  0  0  0  0  0  0  0  0
  175.5910   21.3730   45.8020 H   0  0  0  0  0  0  0  0  0  0  0  0
  176.5113   22.0661   48.4379 H   0  0  0  0  0  0  0  0  0  0  0  0
  177.6312   22.2440   47.0448 H   0  0  0  0  0  0  0  0  0  0  0  0
  176.0540   23.1038   47.0448 H   0  0  0  0  0  0  0  0  0  0  0  0
  177.2847   20.1890   45.3421 H   0  0  0  0  0  0  0  0  0  0  0  0
  176.0515   18.1392   47.1920 H   0  0  0  0  0  0  0  0  0  0  0  0
  175.3021   18.6564   45.6436 H   0  0  0  0  0  0  0  0  0  0  0  0
  176.9282   17.8932   45.6436 H   0  0  0  0  0  0  0  0  0  0  0  0
  177.9803   20.7718   48.0316 H   0  0  0  0  0  0  0  0  0  0  0  0
  178.0162   18.9490   47.8867 H   0  0  0  0  0  0  0  0  0  0  0  0
  179.1770   18.1262   45.5864 H   0  0  0  0  0  0  0  0  0  0  0  0
  181.4188   18.2392   44.5056 H   0  0  0  0  0  0  0  0  0  0  0  0
  182.9564   20.1368   45.0097 H   0  0  0  0  0  0  0  0  0  0  0  0
  182.2510   21.9209   46.6001 H   0  0  0  0  0  0  0  0  0  0  0  0
  180.0114   21.8162   47.6836 H   0  0  0  0  0  0  0  0  0  0  0  0
  1  2  3  0
  2  3  1  0
  3  4  1  0
  4  5  1  0
  4  6  1  0
  6  7  1  0
  6  8  1  0
  8  9  1  0
  9 10  2  0
 10 11  1  0
 11 12  2  0
 12 13  1  0
 13 14  2  0
 14  9  1  0
  1 15  1  0
  3 16  1  0
  3 17  1  0
  4 18  1  6
  5 19  1  0
  5 20  1  0
  5 21  1  0
  6 22  1  6
  7 23  1  0
  7 24  1  0
  7 25  1  0
  8 26  1  0
  8 27  1  0
 10 28  1  0
 11 29  1  0
 12 30  1  0
 13 31  1  0
 14 32  1  0
M  CHG  1   4   1
M  END
>  <meeko>  (6) 
{"is_sidechain": [false], "free_energy": -5.221, "intermolecular_energy": -7.2, "internal_energy": -0.161}

$$$$
selegiline_out
     RDKit          3D

 32 32  0  0  0  0  0  0  0  0999 V2000
  183.4810   22.5050   45.9810 C   0  0  0  0  0  0  0  0  0  0  0  0
  182.8030   21.5200   45.8730 C   0  0  0  0  0  0  0  0  0  0  0  0
  181.9760   20.3080   45.7380 C   0  0  0  0  0  0  0  0  0  0  0  0
  180.9910   20.1980   46.8270 N   0  0  1  0  0  0  0  0  0  0  0  0
  180.6870   21.5130   47.3980 C   0  0  0  0  0  0  0  0  0  0  0  0
  179.7890   19.4310   46.4070 C   0  0  2  0  0  0  0  0  0  0  0  0
  180.0910   18.2450   45.4760 C   0  0  0  0  0  0  0  0  0  0  0  0
  178.7300   20.3820   45.7840 C   0  0  0  0  0  0  0  0  0  0  0  0
  177.3600   20.2670   46.4170 C   0  0  0  0  0  0  0  0  0  0  0  0
  176.7190   21.3960   46.9460 C   0  0  0  0  0  0  0  0  0  0  0  0
  175.4530   21.2860   47.5210 C   0  0  0  0  0  0  0  0  0  0  0  0
  174.8140   20.0490   47.5730 C   0  0  0  0  0  0  0  0  0  0  0  0
  175.4430   18.9200   47.0530 C   0  0  0  0  0  0  0  0  0  0  0  0
  176.7090   19.0260   46.4780 C   0  0  0  0  0  0  0  0  0  0  0  0
  184.1022   23.4074   46.0799 H   0  0  0  0  0  0  0  0  0  0  0  0
  181.4424   20.3455   44.7768 H   0  0  0  0  0  0  0  0  0  0  0  0
  182.6399   19.4322   45.7857 H   0  0  0  0  0  0  0  0  0  0  0  0
  181.4060   19.6530   47.5820 H   0  0  0  0  0  0  0  0  0  0  0  0
  180.7020   21.4483   48.4960 H   0  0  0  0  0  0  0  0  0  0  0  0
  181.4405   22.2412   47.0633 H   0  0  0  0  0  0  0  0  0  0  0  0
  179.6904   21.8366   47.0633 H   0  0  0  0  0  0  0  0  0  0  0  0
  179.3798   18.9796   47.3228 H   0  0  0  0  0  0  0  0  0  0  0  0
  180.3180   17.3537   46.0794 H   0  0  0  0  0  0  0  0  0  0  0  0
  179.2152   18.0448   44.8413 H   0  0  0  0  0  0  0  0  0  0  0  0
  180.9559   18.4881   44.8413 H   0  0  0  0  0  0  0  0  0  0  0  0
  179.0812   21.4177   45.9024 H   0  0  0  0  0  0  0  0  0  0  0  0
  178.6210   20.0933   44.7282 H   0  0  0  0  0  0  0  0  0  0  0  0
  177.2180   22.3755   46.9073 H   0  0  0  0  0  0  0  0  0  0  0  0
  174.9583   22.1774   47.9341 H   0  0  0  0  0  0  0  0  0  0  0  0
  173.8143   19.9640   48.0240 H   0  0  0  0  0  0  0  0  0  0  0  0
  174.9399   17.9427   47.0961 H   0  0  0  0  0  0  0  0  0  0  0  0
  177.2003   18.1306   46.0696 H   0  0  0  0  0  0  0  0  0  0  0  0
  1  2  3  0
  2  3  1  0
  3  4  1  0
  4  5  1  0
  4  6  1  0
  6  7  1  0
  6  8  1  0
  8  9  1  0
  9 10  2  0
 10 11  1  0
 11 12  2  0
 12 13  1  0
 13 14  2  0
 14  9  1  0
  1 15  1  0
  3 16  1  0
  3 17  1  0
  4 18  1  1
  5 19  1  0
  5 20  1  0
  5 21  1  0
  6 22  1  1
  7 23  1  0
  7 24  1  0
  7 25  1  0
  8 26  1  0
  8 27  1  0
 10 28  1  0
 11 29  1  0
 12 30  1  0
 13 31  1  0
 14 32  1  0
M  CHG  1   4   1
M  END
>  <meeko>  (7) 
{"is_sidechain": [false], "free_energy": -5.119, "intermolecular_energy": -7.084, "internal_energy": -0.151}

$$$$
selegiline_out
     RDKit          3D

 32 32  0  0  0  0  0  0  0  0999 V2000
  183.8950   22.5130   45.3250 C   0  0  0  0  0  0  0  0  0  0  0  0
  183.0900   21.8080   45.8710 C   0  0  0  0  0  0  0  0  0  0  0  0
  182.1050   20.9460   46.5470 C   0  0  0  0  0  0  0  0  0  0  0  0
  180.9030   20.7430   45.7210 N   0  0  1  0  0  0  0  0  0  0  0  0
  180.8700   19.3890   45.1610 C   0  0  0  0  0  0  0  0  0  0  0  0
  179.6640   21.1250   46.4480 C   0  0  2  0  0  0  0  0  0  0  0  0
  179.7310   20.9030   47.9680 C   0  0  0  0  0  0  0  0  0  0  0  0
  178.4310   20.4120   45.8270 C   0  0  0  0  0  0  0  0  0  0  0  0
  177.2120   20.4100   46.7250 C   0  0  0  0  0  0  0  0  0  0  0  0
  176.6870   19.2060   47.2140 C   0  0  0  0  0  0  0  0  0  0  0  0
  175.5680   19.2090   48.0490 C   0  0  0  0  0  0  0  0  0  0  0  0
  174.9640   20.4150   48.4020 C   0  0  0  0  0  0  0  0  0  0  0  0
  175.4760   21.6170   47.9180 C   0  0  0  0  0  0  0  0  0  0  0  0
  176.5940   21.6160   47.0840 C   0  0  0  0  0  0  0  0  0  0  0  0
  184.6321   23.1585   44.8251 H   0  0  0  0  0  0  0  0  0  0  0  0
  182.5668   19.9687   46.7511 H   0  0  0  0  0  0  0  0  0  0  0  0
  181.8002   21.4401   47.4813 H   0  0  0  0  0  0  0  0  0  0  0  0
  180.9510   21.3760   44.9220 H   0  0  0  0  0  0  0  0  0  0  0  0
  180.8521   18.6541   45.9793 H   0  0  0  0  0  0  0  0  0  0  0  0
  179.9687   19.2702   44.5417 H   0  0  0  0  0  0  0  0  0  0  0  0
  181.7644   19.2264   44.5417 H   0  0  0  0  0  0  0  0  0  0  0  0
  179.5584   22.2126   46.3218 H   0  0  0  0  0  0  0  0  0  0  0  0
  179.4508   21.8316   48.4869 H   0  0  0  0  0  0  0  0  0  0  0  0
  179.0353   20.0998   48.2523 H   0  0  0  0  0  0  0  0  0  0  0  0
  180.7549   20.6188   48.2523 H   0  0  0  0  0  0  0  0  0  0  0  0
  178.1702   20.9237   44.8888 H   0  0  0  0  0  0  0  0  0  0  0  0
  178.7142   19.3611   45.6677 H   0  0  0  0  0  0  0  0  0  0  0  0
  177.1599   18.2520   46.9380 H   0  0  0  0  0  0  0  0  0  0  0  0
  175.1627   18.2594   48.4285 H   0  0  0  0  0  0  0  0  0  0  0  0
  174.0840   20.4175   49.0620 H   0  0  0  0  0  0  0  0  0  0  0  0
  174.9977   22.5683   48.1941 H   0  0  0  0  0  0  0  0  0  0  0  0
  176.9936   22.5683   46.7053 H   0  0  0  0  0  0  0  0  0  0  0  0
  1  2  3  0
  2  3  1  0
  3  4  1  0
  4  5  1  0
  4  6  1  0
  6  7  1  0
  6  8  1  0
  8  9  1  0
  9 10  2  0
 10 11  1  0
 11 12  2  0
 12 13  1  0
 13 14  2  0
 14  9  1  0
  1 15  1  0
  3 16  1  0
  3 17  1  0
  4 18  1  6
  5 19  1  0
  5 20  1  0
  5 21  1  0
  6 22  1  1
  7 23  1  0
  7 24  1  0
  7 25  1  0
  8 26  1  0
  8 27  1  0
 10 28  1  0
 11 29  1  0
 12 30  1  0
 13 31  1  0
 14 32  1  0
M  CHG  1   4   1
M  END
>  <meeko>  (8) 
{"is_sidechain": [false], "free_energy": -4.97, "intermolecular_energy": -6.821, "internal_energy": -0.229}

$$$$
selegiline_out
     RDKit          3D

 32 32  0  0  0  0  0  0  0  0999 V2000
  178.8230   22.1860   47.0450 C   0  0  0  0  0  0  0  0  0  0  0  0
  179.2380   21.0780   46.8360 C   0  0  0  0  0  0  0  0  0  0  0  0
  179.7420   19.7170   46.5840 C   0  0  0  0  0  0  0  0  0  0  0  0
  180.5410   19.6540   45.3490 N   0  0  1  0  0  0  0  0  0  0  0  0
  181.9430   19.9860   45.6100 C   0  0  0  0  0  0  0  0  0  0  0  0
  180.3500   18.3640   44.6350 C   0  0  2  0  0  0  0  0  0  0  0  0
  179.7520   17.2440   45.5040 C   0  0  0  0  0  0  0  0  0  0  0  0
  181.6780   17.9120   43.9680 C   0  0  0  0  0  0  0  0  0  0  0  0
  181.5120   16.7690   42.9900 C   0  0  0  0  0  0  0  0  0  0  0  0
  180.8480   16.9630   41.7710 C   0  0  0  0  0  0  0  0  0  0  0  0
  180.7050   15.9090   40.8680 C   0  0  0  0  0  0  0  0  0  0  0  0
  181.2230   14.6520   41.1740 C   0  0  0  0  0  0  0  0  0  0  0  0
  181.8820   14.4470   42.3840 C   0  0  0  0  0  0  0  0  0  0  0  0
  182.0260   15.5000   43.2890 C   0  0  0  0  0  0  0  0  0  0  0  0
  178.4430   23.2004   47.2363 H   0  0  0  0  0  0  0  0  0  0  0  0
  180.3704   19.4066   47.4318 H   0  0  0  0  0  0  0  0  0  0  0  0
  178.8777   19.0463   46.4687 H   0  0  0  0  0  0  0  0  0  0  0  0
  180.1980   20.3680   44.7070 H   0  0  0  0  0  0  0  0  0  0  0  0
  182.1142   20.0265   46.6958 H   0  0  0  0  0  0  0  0  0  0  0  0
  182.5910   19.2165   45.1651 H   0  0  0  0  0  0  0  0  0  0  0  0
  182.1771   20.9644   45.1651 H   0  0  0  0  0  0  0  0  0  0  0  0
  179.5974   18.5554   43.8559 H   0  0  0  0  0  0  0  0  0  0  0  0
  179.8854   17.4938   46.5669 H   0  0  0  0  0  0  0  0  0  0  0  0
  178.6793   17.1417   45.2832 H   0  0  0  0  0  0  0  0  0  0  0  0
  180.2638   16.2957   45.2832 H   0  0  0  0  0  0  0  0  0  0  0  0
  182.1051   18.7705   43.4289 H   0  0  0  0  0  0  0  0  0  0  0  0
  182.3348   17.5517   44.7735 H   0  0  0  0  0  0  0  0  0  0  0  0
  180.4368   17.9530   41.5245 H   0  0  0  0  0  0  0  0  0  0  0  0
  180.1828   16.0704   39.9134 H   0  0  0  0  0  0  0  0  0  0  0  0
  181.1116   13.8222   40.4605 H   0  0  0  0  0  0  0  0  0  0  0  0
  182.2893   13.4544   42.6266 H   0  0  0  0  0  0  0  0  0  0  0  0
  182.5465   15.3326   44.2435 H   0  0  0  0  0  0  0  0  0  0  0  0
  1  2  3  0
  2  3  1  0
  3  4  1  0
  4  5  1  0
  4  6  1  0
  6  7  1  0
  6  8  1  0
  8  9  1  0
  9 10  2  0
 10 11  1  0
 11 12  2  0
 12 13  1  0
 13 14  2  0
 14  9  1  0
  1 15  1  0
  3 16  1  0
  3 17  1  0
  4 18  1  6
  5 19  1  0
  5 20  1  0
  5 21  1  0
  6 22  1  6
  7 23  1  0
  7 24  1  0
  7 25  1  0
  8 26  1  0
  8 27  1  0
 10 28  1  0
 11 29  1  0
 12 30  1  0
 13 31  1  0
 14 32  1  0
M  CHG  1   4   1
M  END
>  <meeko>  (9) 
{"is_sidechain": [false], "free_energy": -4.939, "intermolecular_energy": -6.621, "internal_energy": -0.392}

$$$$
