cand_038_out
     RDKit          3D

 47 49  0  0  0  0  0  0  0  0999 V2000
   41.5960   26.9120  -11.0800 C   0  0  0  0  0  0  0  0  0  0  0  0
   43.0010   26.7390  -11.6480 C   0  0  0  0  0  0  0  0  0  0  0  0
   42.9870   26.3450  -13.1110 C   0  0  0  0  0  0  0  0  0  0  0  0
   41.8110   26.7360  -13.8070 C   0  0  0  0  0  0  0  0  0  0  0  0
   41.6120   26.4810  -15.1660 C   0  0  0  0  0  0  0  0  0  0  0  0
   40.3740   26.8740  -15.8700 C   0  0  0  0  0  0  0  0  0  0  0  0
   39.5580   27.7020  -15.1060 O   0  0  0  0  0  0  0  0  0  0  0  0
   38.3760   28.1430  -15.6400 C   0  0  0  0  0  0  0  0  0  0  0  0
   37.5960   28.9850  -14.8450 C   0  0  0  0  0  0  0  0  0  0  0  0
   36.3780   29.4680  -15.3280 C   0  0  0  0  0  0  0  0  0  0  0  0
   35.9390   29.1100  -16.6050 C   0  0  0  0  0  0  0  0  0  0  0  0
   36.7180   28.2700  -17.3960 C   0  0  0  0  0  0  0  0  0  0  0  0
   36.2290   27.9590  -18.6350 O   0  0  0  0  0  0  0  0  0  0  0  0
   37.9370   27.7870  -16.9120 C   0  0  0  0  0  0  0  0  0  0  0  0
   38.7870   26.9020  -17.7110 C   0  0  0  0  0  0  0  0  0  0  0  0
   38.4670   26.5370  -18.8400 O   0  0  0  0  0  0  0  0  0  0  0  0
   40.0640   26.4530  -17.1100 C   0  0  0  0  0  0  0  0  0  0  0  0
   40.8520   25.6060  -17.8690 O   0  0  0  0  0  0  0  0  0  0  0  0
   42.6140   25.7940  -15.8410 C   0  0  0  0  0  0  0  0  0  0  0  0
   43.7810   25.3950  -15.1760 C   0  0  0  0  0  0  0  0  0  0  0  0
   44.0180   25.6570  -13.8040 C   0  0  0  0  0  0  0  0  0  0  0  0
   45.3430   25.1540  -13.1680 C   0  0  0  0  0  0  0  0  0  0  0  0
   46.3060   26.3010  -12.7420 C   0  0  0  0  0  0  0  0  0  0  0  0
   45.1010   24.3500  -11.8700 C   0  0  0  0  0  0  0  0  0  0  0  0
   46.1330   24.3140  -14.1940 C   0  0  0  0  0  0  0  0  0  0  0  0
   41.6416   26.9064   -9.9810 H   0  0  0  0  0  0  0  0  0  0  0  0
   41.1764   27.8686  -11.4247 H   0  0  0  0  0  0  0  0  0  0  0  0
   40.9568   26.0858  -11.4247 H   0  0  0  0  0  0  0  0  0  0  0  0
   43.5442   27.6898  -11.5432 H   0  0  0  0  0  0  0  0  0  0  0  0
   43.4928   25.9305  -11.0872 H   0  0  0  0  0  0  0  0  0  0  0  0
   41.0221   27.2631  -13.2505 H   0  0  0  0  0  0  0  0  0  0  0  0
   37.9405   29.2676  -13.8393 H   0  0  0  0  0  0  0  0  0  0  0  0
   35.7632   30.1314  -14.7019 H   0  0  0  0  0  0  0  0  0  0  0  0
   34.9796   29.4911  -16.9848 H   0  0  0  0  0  0  0  0  0  0  0  0
   35.4250   27.4840  -18.7150 H   0  0  0  0  0  0  0  0  0  0  0  0
   41.7830   25.7130  -17.8740 H   0  0  0  0  0  0  0  0  0  0  0  0
   42.4896   25.5610  -16.9088 H   0  0  0  0  0  0  0  0  0  0  0  0
   44.5496   24.8526  -15.7462 H   0  0  0  0  0  0  0  0  0  0  0  0
   46.3503   26.3538  -11.6442 H   0  0  0  0  0  0  0  0  0  0  0  0
   47.3119   26.1022  -13.1404 H   0  0  0  0  0  0  0  0  0  0  0  0
   45.9361   27.2573  -13.1404 H   0  0  0  0  0  0  0  0  0  0  0  0
   45.2946   24.9931  -10.9989 H   0  0  0  0  0  0  0  0  0  0  0  0
   44.0581   24.0012  -11.8438 H   0  0  0  0  0  0  0  0  0  0  0  0
   45.7781   23.4835  -11.8438 H   0  0  0  0  0  0  0  0  0  0  0  0
   46.7930   23.6123  -13.6629 H   0  0  0  0  0  0  0  0  0  0  0  0
   45.4303   23.7502  -14.8251 H   0  0  0  0  0  0  0  0  0  0  0  0
   46.7388   24.9809  -14.8251 H   0  0  0  0  0  0  0  0  0  0  0  0
  1  2  1  0
  2  3  1  0
  3  4  2  0
  4  5  1  0
  5  6  1  0
  6  7  1  0
  7  8  1  0
  8  9  2  0
  9 10  1  0
 10 11  2  0
 11 12  1  0
 12 13  1  0
 12 14  2  0
 14 15  1  0
 15 16  2  0
 15 17  1  0
 17 18  1  0
  5 19  2  0
 19 20  1  0
 20 21  2  0
 21 22  1  0
 22 23  1  0
 22 24  1  0
 22 25  1  0
 21  3  1  0
 17  6  2  0
 14  8  1  0
  1 26  1  0
  1 27  1  0
  1 28  1  0
  2 29  1  0
  2 30  1  0
  4 31  1  0
  9 32  1  0
 10 33  1  0
 11 34  1  0
 13 35  1  0
 18 36  1  0
 19 37  1  0
 20 38  1  0
 23 39  1  0
 23 40  1  0
 23 41  1  0
 24 42  1  0
 24 43  1  0
 24 44  1  0
 25 45  1  0
 25 46  1  0
 25 47  1  0
M  END
>  <meeko>  (1) 
{"is_sidechain": [false], "free_energy": -5.151, "intermolecular_energy": -6.356, "internal_energy": 0.167}

$$$$
cand_038_out
     RDKit          3D

 47 49  0  0  0  0  0  0  0  0999 V2000
   41.5270   26.8380  -10.6750 C   0  0  0  0  0  0  0  0  0  0  0  0
   42.8630   26.6890  -11.3950 C   0  0  0  0  0  0  0  0  0  0  0  0
   42.6950   26.4530  -12.8820 C   0  0  0  0  0  0  0  0  0  0  0  0
   41.4780   26.9570  -13.4170 C   0  0  0  0  0  0  0  0  0  0  0  0
   41.1410   26.8540  -14.7680 C   0  0  0  0  0  0  0  0  0  0  0  0
   39.8620   27.3640  -15.3040 C   0  0  0  0  0  0  0  0  0  0  0  0
   39.5490   26.8330  -16.5510 O   0  0  0  0  0  0  0  0  0  0  0  0
   38.3860   27.2210  -17.1630 C   0  0  0  0  0  0  0  0  0  0  0  0
   38.1040   26.6530  -18.4070 C   0  0  0  0  0  0  0  0  0  0  0  0
   36.9370   27.0070  -19.0870 C   0  0  0  0  0  0  0  0  0  0  0  0
   36.0510   27.9290  -18.5240 C   0  0  0  0  0  0  0  0  0  0  0  0
   36.3350   28.4960  -17.2840 C   0  0  0  0  0  0  0  0  0  0  0  0
   35.4270   29.3920  -16.7920 O   0  0  0  0  0  0  0  0  0  0  0  0
   37.5040   28.1400  -16.6050 C   0  0  0  0  0  0  0  0  0  0  0  0
   37.8400   28.7120  -15.2990 C   0  0  0  0  0  0  0  0  0  0  0  0
   37.1150   29.5350  -14.7430 O   0  0  0  0  0  0  0  0  0  0  0  0
   39.0970   28.2630  -14.6580 C   0  0  0  0  0  0  0  0  0  0  0  0
   39.4110   28.8200  -13.4310 O   0  0  0  0  0  0  0  0  0  0  0  0
   42.0430   26.2060  -15.6050 C   0  0  0  0  0  0  0  0  0  0  0  0
   43.2470   25.6970  -15.1010 C   0  0  0  0  0  0  0  0  0  0  0  0
   43.6230   25.8040  -13.7400 C   0  0  0  0  0  0  0  0  0  0  0  0
   44.9780   25.1890  -13.2900 C   0  0  0  0  0  0  0  0  0  0  0  0
   44.9740   24.6790  -11.8180 C   0  0  0  0  0  0  0  0  0  0  0  0
   45.3650   23.9500  -14.1280 C   0  0  0  0  0  0  0  0  0  0  0  0
   46.0860   26.2620  -13.3510 C   0  0  0  0  0  0  0  0  0  0  0  0
   41.6924   26.8196   -9.5877 H   0  0  0  0  0  0  0  0  0  0  0  0
   41.0620   27.7936  -10.9590 H   0  0  0  0  0  0  0  0  0  0  0  0
   40.8629   26.0084  -10.9590 H   0  0  0  0  0  0  0  0  0  0  0  0
   43.4483   27.6086  -11.2473 H   0  0  0  0  0  0  0  0  0  0  0  0
   43.3756   25.8123  -10.9723 H   0  0  0  0  0  0  0  0  0  0  0  0
   40.7696   27.4506  -12.7355 H   0  0  0  0  0  0  0  0  0  0  0  0
   38.8009   25.9270  -18.8511 H   0  0  0  0  0  0  0  0  0  0  0  0
   36.7150   26.5595  -20.0670 H   0  0  0  0  0  0  0  0  0  0  0  0
   35.1309   28.2066  -19.0591 H   0  0  0  0  0  0  0  0  0  0  0  0
   34.5810   29.0990  -16.5160 H   0  0  0  0  0  0  0  0  0  0  0  0
   38.9090   29.5390  -13.1020 H   0  0  0  0  0  0  0  0  0  0  0  0
   41.8087   26.0919  -16.6737 H   0  0  0  0  0  0  0  0  0  0  0  0
   43.9330   25.1901  -15.7956 H   0  0  0  0  0  0  0  0  0  0  0  0
   44.9807   25.5389  -11.1320 H   0  0  0  0  0  0  0  0  0  0  0  0
   44.0711   24.0761  -11.6413 H   0  0  0  0  0  0  0  0  0  0  0  0
   45.8673   24.0620  -11.6413 H   0  0  0  0  0  0  0  0  0  0  0  0
   45.6245   23.1190  -13.4556 H   0  0  0  0  0  0  0  0  0  0  0  0
   44.5157   23.6566  -14.7625 H   0  0  0  0  0  0  0  0  0  0  0  0
   46.2303   24.1922  -14.7625 H   0  0  0  0  0  0  0  0  0  0  0  0
   46.3786   26.5454  -12.3292 H   0  0  0  0  0  0  0  0  0  0  0  0
   46.9593   25.8574  -13.8836 H   0  0  0  0  0  0  0  0  0  0  0  0
   45.7097   27.1478  -13.8836 H   0  0  0  0  0  0  0  0  0  0  0  0
  1  2  1  0
  2  3  1  0
  3  4  2  0
  4  5  1  0
  5  6  1  0
  6  7  1  0
  7  8  1  0
  8  9  2  0
  9 10  1  0
 10 11  2  0
 11 12  1  0
 12 13  1  0
 12 14  2  0
 14 15  1  0
 15 16  2  0
 15 17  1  0
 17 18  1  0
  5 19  2  0
 19 20  1  0
 20 21  2  0
 21 22  1  0
 22 23  1  0
 22 24  1  0
 22 25  1  0
 21  3  1  0
 17  6  2  0
 14  8  1  0
  1 26  1  0
  1 27  1  0
  1 28  1  0
  2 29  1  0
  2 30  1  0
  4 31  1  0
  9 32  1  0
 10 33  1  0
 11 34  1  0
 13 35  1  0
 18 36  1  0
 19 37  1  0
 20 38  1  0
 23 39  1  0
 23 40  1  0
 23 41  1  0
 24 42  1  0
 24 43  1  0
 24 44  1  0
 25 45  1  0
 25 46  1  0
 25 47  1  0
M  END
>  <meeko>  (2) 
{"is_sidechain": [false], "free_energy": -3.365, "intermolecular_energy": -4.243, "internal_energy": 0.259}

$$$$
cand_038_out
     RDKit          3D

 47 49  0  0  0  0  0  0  0  0999 V2000
   44.6600   29.0770  -12.8560 C   0  0  0  0  0  0  0  0  0  0  0  0
   44.8880   27.6060  -12.5250 C   0  0  0  0  0  0  0  0  0  0  0  0
   44.0400   26.6850  -13.3790 C   0  0  0  0  0  0  0  0  0  0  0  0
   42.7820   27.2330  -13.7540 C   0  0  0  0  0  0  0  0  0  0  0  0
   41.8630   26.5490  -14.5520 C   0  0  0  0  0  0  0  0  0  0  0  0
   40.5510   27.1240  -14.9140 C   0  0  0  0  0  0  0  0  0  0  0  0
   40.1430   26.7730  -16.1970 O   0  0  0  0  0  0  0  0  0  0  0  0
   38.9410   27.2390  -16.6610 C   0  0  0  0  0  0  0  0  0  0  0  0
   38.5630   26.8500  -17.9470 C   0  0  0  0  0  0  0  0  0  0  0  0
   37.3510   27.2920  -18.4820 C   0  0  0  0  0  0  0  0  0  0  0  0
   36.5160   28.1220  -17.7310 C   0  0  0  0  0  0  0  0  0  0  0  0
   36.8950   28.5100  -16.4480 C   0  0  0  0  0  0  0  0  0  0  0  0
   36.0310   29.3250  -15.7690 O   0  0  0  0  0  0  0  0  0  0  0  0
   38.1080   28.0670  -15.9140 C   0  0  0  0  0  0  0  0  0  0  0  0
   38.5440   28.4500  -14.5700 C   0  0  0  0  0  0  0  0  0  0  0  0
   37.8680   29.1840  -13.8510 O   0  0  0  0  0  0  0  0  0  0  0  0
   39.8420   27.9210  -14.0930 C   0  0  0  0  0  0  0  0  0  0  0  0
   40.2490   28.3000  -12.8270 O   0  0  0  0  0  0  0  0  0  0  0  0
   42.2060   25.2680  -14.9690 C   0  0  0  0  0  0  0  0  0  0  0  0
   43.4380   24.7040  -14.6100 C   0  0  0  0  0  0  0  0  0  0  0  0
   44.3960   25.3820  -13.8180 C   0  0  0  0  0  0  0  0  0  0  0  0
   45.7240   24.6520  -13.4680 C   0  0  0  0  0  0  0  0  0  0  0  0
   46.0730   24.6830  -11.9510 C   0  0  0  0  0  0  0  0  0  0  0  0
   45.6770   23.1490  -13.8250 C   0  0  0  0  0  0  0  0  0  0  0  0
   46.9060   25.3480  -14.1760 C   0  0  0  0  0  0  0  0  0  0  0  0
   44.5707   29.6532  -11.9232 H   0  0  0  0  0  0  0  0  0  0  0  0
   45.5100   29.4570  -13.4418 H   0  0  0  0  0  0  0  0  0  0  0  0
   43.7349   29.1819  -13.4418 H   0  0  0  0  0  0  0  0  0  0  0  0
   45.9485   27.3663  -12.6921 H   0  0  0  0  0  0  0  0  0  0  0  0
   44.6008   27.4495  -11.4747 H   0  0  0  0  0  0  0  0  0  0  0  0
   42.5215   28.2411  -13.3993 H   0  0  0  0  0  0  0  0  0  0  0  0
   39.2195   26.1954  -18.5390 H   0  0  0  0  0  0  0  0  0  0  0  0
   37.0538   26.9860  -19.4959 H   0  0  0  0  0  0  0  0  0  0  0  0
   35.5607   28.4688  -18.1519 H   0  0  0  0  0  0  0  0  0  0  0  0
   36.2580   30.2200  -15.6110 H   0  0  0  0  0  0  0  0  0  0  0  0
   41.0960   28.0500  -12.5140 H   0  0  0  0  0  0  0  0  0  0  0  0
   41.5030   24.6907  -15.5874 H   0  0  0  0  0  0  0  0  0  0  0  0
   43.6714   23.6875  -14.9598 H   0  0  0  0  0  0  0  0  0  0  0  0
   45.1487   24.6009  -11.3604 H   0  0  0  0  0  0  0  0  0  0  0  0
   46.7379   23.8404  -11.7104 H   0  0  0  0  0  0  0  0  0  0  0  0
   46.5790   25.6296  -11.7104 H   0  0  0  0  0  0  0  0  0  0  0  0
   45.6584   22.5530  -12.9006 H   0  0  0  0  0  0  0  0  0  0  0  0
   44.7719   22.9402  -14.4142 H   0  0  0  0  0  0  0  0  0  0  0  0
   46.5673   22.8841  -14.4142 H   0  0  0  0  0  0  0  0  0  0  0  0
   47.5967   25.7547  -13.4226 H   0  0  0  0  0  0  0  0  0  0  0  0
   47.4375   24.6187  -14.8050 H   0  0  0  0  0  0  0  0  0  0  0  0
   46.5261   26.1666  -14.8050 H   0  0  0  0  0  0  0  0  0  0  0  0
  1  2  1  0
  2  3  1  0
  3  4  2  0
  4  5  1  0
  5  6  1  0
  6  7  1  0
  7  8  1  0
  8  9  2  0
  9 10  1  0
 10 11  2  0
 11 12  1  0
 12 13  1  0
 12 14  2  0
 14 15  1  0
 15 16  2  0
 15 17  1  0
 17 18  1  0
  5 19  2  0
 19 20  1  0
 20 21  2  0
 21 22  1  0
 22 23  1  0
 22 24  1  0
 22 25  1  0
 21  3  1  0
 17  6  2  0
 14  8  1  0
  1 26  1  0
  1 27  1  0
  1 28  1  0
  2 29  1  0
  2 30  1  0
  4 31  1  0
  9 32  1  0
 10 33  1  0
 11 34  1  0
 13 35  1  0
 18 36  1  0
 19 37  1  0
 20 38  1  0
 23 39  1  0
 23 40  1  0
 23 41  1  0
 24 42  1  0
 24 43  1  0
 24 44  1  0
 25 45  1  0
 25 46  1  0
 25 47  1  0
M  END
>  <meeko>  (3) 
{"is_sidechain": [false], "free_energy": -2.757, "intermolecular_energy": -3.164, "internal_energy": -0.071}

$$$$
