cand_024_out
     RDKit          3D

 47 49  0  0  0  0  0  0  0  0999 V2000
   48.1870   26.4880  -15.0860 C   0  0  0  0  0  0  0  0  0  0  0  0
   46.9520   26.3050  -14.3180 N   0  0  0  0  0  0  0  0  0  0  0  0
   47.1770   26.7160  -12.9290 C   0  0  0  0  0  0  0  0  0  0  0  0
   46.4860   24.9050  -14.3570 C   0  0  0  0  0  0  0  0  0  0  0  0
   45.2860   24.6400  -13.4290 C   0  0  0  0  0  0  0  0  0  0  0  0
   43.9970   25.2060  -13.9960 C   0  0  0  0  0  0  0  0  0  0  0  0
   43.5980   24.7930  -15.2790 C   0  0  0  0  0  0  0  0  0  0  0  0
   42.4290   25.2850  -15.8610 C   0  0  0  0  0  0  0  0  0  0  0  0
   41.6190   26.1980  -15.1790 C   0  0  0  0  0  0  0  0  0  0  0  0
   40.3930   26.7200  -15.8210 C   0  0  0  0  0  0  0  0  0  0  0  0
   39.6360   27.5180  -14.9730 O   0  0  0  0  0  0  0  0  0  0  0  0
   38.4720   28.0690  -15.4460 C   0  0  0  0  0  0  0  0  0  0  0  0
   37.7350   28.8520  -14.5580 C   0  0  0  0  0  0  0  0  0  0  0  0
   36.5410   29.4430  -14.9760 C   0  0  0  0  0  0  0  0  0  0  0  0
   36.0840   29.2510  -16.2810 C   0  0  0  0  0  0  0  0  0  0  0  0
   36.8210   28.4690  -17.1660 C   0  0  0  0  0  0  0  0  0  0  0  0
   36.3170   28.3220  -18.4290 O   0  0  0  0  0  0  0  0  0  0  0  0
   38.0160   27.8770  -16.7470 C   0  0  0  0  0  0  0  0  0  0  0  0
   38.8210   27.0480  -17.6450 C   0  0  0  0  0  0  0  0  0  0  0  0
   38.4900   26.8380  -18.8100 O   0  0  0  0  0  0  0  0  0  0  0  0
   40.0670   26.4610  -17.1010 C   0  0  0  0  0  0  0  0  0  0  0  0
   40.8290   25.6900  -17.9590 O   0  0  0  0  0  0  0  0  0  0  0  0
   42.0220   26.6220  -13.9040 C   0  0  0  0  0  0  0  0  0  0  0  0
   43.2030   26.1410  -13.2970 C   0  0  0  0  0  0  0  0  0  0  0  0
   43.5600   26.6290  -11.9100 C   0  0  0  0  0  0  0  0  0  0  0  0
   44.2100   25.7000  -11.1510 F   0  0  0  0  0  0  0  0  0  0  0  0
   44.3750   27.7210  -11.9310 F   0  0  0  0  0  0  0  0  0  0  0  0
   42.4680   26.9910  -11.1780 F   0  0  0  0  0  0  0  0  0  0  0  0
   49.0334   26.6134  -14.3948 H   0  0  0  0  0  0  0  0  0  0  0  0
   48.3588   25.6055  -15.7198 H   0  0  0  0  0  0  0  0  0  0  0  0
   48.0955   27.3824  -15.7198 H   0  0  0  0  0  0  0  0  0  0  0  0
   46.2260   26.8850  -14.7410 H   0  0  0  0  0  0  0  0  0  0  0  0
   46.7614   25.9568  -12.2501 H   0  0  0  0  0  0  0  0  0  0  0  0
   48.2570   26.8185  -12.7473 H   0  0  0  0  0  0  0  0  0  0  0  0
   46.6814   27.6811  -12.7473 H   0  0  0  0  0  0  0  0  0  0  0  0
   46.1905   24.6633  -15.3886 H   0  0  0  0  0  0  0  0  0  0  0  0
   47.3161   24.2739  -14.0069 H   0  0  0  0  0  0  0  0  0  0  0  0
   45.1704   23.5539  -13.2983 H   0  0  0  0  0  0  0  0  0  0  0  0
   45.4825   25.1362  -12.4671 H   0  0  0  0  0  0  0  0  0  0  0  0
   44.2165   24.0712  -15.8325 H   0  0  0  0  0  0  0  0  0  0  0  0
   42.1413   24.9504  -16.8686 H   0  0  0  0  0  0  0  0  0  0  0  0
   38.0939   29.0039  -13.5294 H   0  0  0  0  0  0  0  0  0  0  0  0
   35.9596   30.0609  -14.2759 H   0  0  0  0  0  0  0  0  0  0  0  0
   35.1432   29.7168  -16.6094 H   0  0  0  0  0  0  0  0  0  0  0  0
   35.3940   28.3920  -18.5750 H   0  0  0  0  0  0  0  0  0  0  0  0
   41.7610   25.6600  -17.8610 H   0  0  0  0  0  0  0  0  0  0  0  0
   41.4005   27.3497  -13.3616 H   0  0  0  0  0  0  0  0  0  0  0  0
  1  2  1  0
  2  3  1  0
  2  4  1  0
  4  5  1  0
  5  6  1  0
  6  7  2  0
  7  8  1  0
  8  9  2  0
  9 10  1  0
 10 11  1  0
 11 12  1  0
 12 13  2  0
 13 14  1  0
 14 15  2  0
 15 16  1  0
 16 17  1  0
 16 18  2  0
 18 19  1  0
 19 20  2  0
 19 21  1  0
 21 22  1  0
  9 23  1  0
 23 24  2  0
 24 25  1  0
 25 26  1  0
 25 27  1  0
 25 28  1  0
 24  6  1  0
 21 10  2  0
 18 12  1  0
  1 29  1  0
  1 30  1  0
  1 31  1  0
  2 32  1  0
  3 33  1  0
  3 34  1  0
  3 35  1  0
  4 36  1  0
  4 37  1  0
  5 38  1  0
  5 39  1  0
  7 40  1  0
  8 41  1  0
 13 42  1  0
 14 43  1  0
 15 44  1  0
 17 45  1  0
 22 46  1  0
 23 47  1  0
M  CHG  1   2   1
M  END
>  <meeko>  (1) 
{"is_sidechain": [false], "free_energy": -7.151, "intermolecular_energy": -9.659, "internal_energy": 0.061}

$$$$
cand_024_out
     RDKit          3D

 47 49  0  0  0  0  0  0  0  0999 V2000
   48.0760   26.5510  -14.9810 C   0  0  0  0  0  0  0  0  0  0  0  0
   46.8270   26.3220  -14.2510 N   0  0  0  0  0  0  0  0  0  0  0  0
   47.1120   26.2300  -12.8150 C   0  0  0  0  0  0  0  0  0  0  0  0
   46.1420   25.0960  -14.7060 C   0  0  0  0  0  0  0  0  0  0  0  0
   45.0060   24.6530  -13.7670 C   0  0  0  0  0  0  0  0  0  0  0  0
   43.6890   25.3250  -14.1150 C   0  0  0  0  0  0  0  0  0  0  0  0
   43.1120   25.0440  -15.3650 C   0  0  0  0  0  0  0  0  0  0  0  0
   41.9090   25.6380  -15.7510 C   0  0  0  0  0  0  0  0  0  0  0  0
   41.2430   26.5240  -14.8980 C   0  0  0  0  0  0  0  0  0  0  0  0
   39.9790   27.1550  -15.3330 C   0  0  0  0  0  0  0  0  0  0  0  0
   39.5600   26.7230  -16.5850 O   0  0  0  0  0  0  0  0  0  0  0  0
   38.3970   27.2300  -17.1060 C   0  0  0  0  0  0  0  0  0  0  0  0
   38.0220   26.7790  -18.3730 C   0  0  0  0  0  0  0  0  0  0  0  0
   36.8480   27.2550  -18.9610 C   0  0  0  0  0  0  0  0  0  0  0  0
   36.0510   28.1800  -18.2850 C   0  0  0  0  0  0  0  0  0  0  0  0
   36.4270   28.6270  -17.0210 C   0  0  0  0  0  0  0  0  0  0  0  0
   35.6000   29.5320  -16.4140 O   0  0  0  0  0  0  0  0  0  0  0  0
   37.6020   28.1520  -16.4330 C   0  0  0  0  0  0  0  0  0  0  0  0
   38.0340   28.5970  -15.1070 C   0  0  0  0  0  0  0  0  0  0  0  0
   37.3840   29.4030  -14.4460 O   0  0  0  0  0  0  0  0  0  0  0  0
   39.2990   28.0370  -14.5760 C   0  0  0  0  0  0  0  0  0  0  0  0
   39.6940   28.4520  -13.3170 O   0  0  0  0  0  0  0  0  0  0  0  0
   41.8250   26.8150  -13.6560 C   0  0  0  0  0  0  0  0  0  0  0  0
   43.0420   26.2290  -13.2460 C   0  0  0  0  0  0  0  0  0  0  0  0
   43.5960   26.5770  -11.8810 C   0  0  0  0  0  0  0  0  0  0  0  0
   44.2670   25.5510  -11.2830 F   0  0  0  0  0  0  0  0  0  0  0  0
   44.4750   27.6180  -11.9200 F   0  0  0  0  0  0  0  0  0  0  0  0
   42.6270   26.9380  -10.9920 F   0  0  0  0  0  0  0  0  0  0  0  0
   48.8971   26.7015  -14.2646 H   0  0  0  0  0  0  0  0  0  0  0  0
   48.2964   25.6783  -15.6133 H   0  0  0  0  0  0  0  0  0  0  0  0
   47.9725   27.4451  -15.6133 H   0  0  0  0  0  0  0  0  0  0  0  0
   46.2030   27.1100  -14.4330 H   0  0  0  0  0  0  0  0  0  0  0  0
   46.2171   26.5189  -12.2443 H   0  0  0  0  0  0  0  0  0  0  0  0
   47.3904   25.1963  -12.5619 H   0  0  0  0  0  0  0  0  0  0  0  0
   47.9422   26.9058  -12.5619 H   0  0  0  0  0  0  0  0  0  0  0  0
   45.7184   25.2820  -15.7040 H   0  0  0  0  0  0  0  0  0  0  0  0
   46.8895   24.2891  -14.7186 H   0  0  0  0  0  0  0  0  0  0  0  0
   44.8816   23.5631  -13.8488 H   0  0  0  0  0  0  0  0  0  0  0  0
   45.2775   24.9453  -12.7419 H   0  0  0  0  0  0  0  0  0  0  0  0
   43.6156   24.3456  -16.0496 H   0  0  0  0  0  0  0  0  0  0  0  0
   41.4801   25.4066  -16.7371 H   0  0  0  0  0  0  0  0  0  0  0  0
   38.6498   26.0504  -18.9069 H   0  0  0  0  0  0  0  0  0  0  0  0
   36.5509   26.9001  -19.9589 H   0  0  0  0  0  0  0  0  0  0  0  0
   35.1274   28.5553  -18.7499 H   0  0  0  0  0  0  0  0  0  0  0  0
   34.9590   29.9930  -16.9200 H   0  0  0  0  0  0  0  0  0  0  0  0
   39.2960   29.2070  -12.9270 H   0  0  0  0  0  0  0  0  0  0  0  0
   41.3183   27.5207  -12.9813 H   0  0  0  0  0  0  0  0  0  0  0  0
  1  2  1  0
  2  3  1  0
  2  4  1  0
  4  5  1  0
  5  6  1  0
  6  7  2  0
  7  8  1  0
  8  9  2  0
  9 10  1  0
 10 11  1  0
 11 12  1  0
 12 13  2  0
 13 14  1  0
 14 15  2  0
 15 16  1  0
 16 17  1  0
 16 18  2  0
 18 19  1  0
 19 20  2  0
 19 21  1  0
 21 22  1  0
  9 23  1  0
 23 24  2  0
 24 25  1  0
 25 26  1  0
 25 27  1  0
 25 28  1  0
 24  6  1  0
 21 10  2  0
 18 12  1  0
  1 29  1  0
  1 30  1  0
  1 31  1  0
  2 32  1  0
  3 33  1  0
  3 34  1  0
  3 35  1  0
  4 36  1  0
  4 37  1  0
  5 38  1  0
  5 39  1  0
  7 40  1  0
  8 41  1  0
 13 42  1  0
 14 43  1  0
 15 44  1  0
 17 45  1  0
 22 46  1  0
 23 47  1  0
M  CHG  1   2   1
M  END
>  <meeko>  (2) 
{"is_sidechain": [false], "free_energy": -5.929, "intermolecular_energy": -7.983, "internal_energy": 0.036}

$$$$
cand_024_out
     RDKit          3D

 47 49  0  0  0  0  0  0  0  0999 V2000
   45.7380   24.4650  -13.4480 C   0  0  0  0  0  0  0  0  0  0  0  0
   45.7420   25.8330  -13.9740 N   0  0  0  0  0  0  0  0  0  0  0  0
   47.1100   26.3610  -13.9470 C   0  0  0  0  0  0  0  0  0  0  0  0
   44.8480   26.7190  -13.2040 C   0  0  0  0  0  0  0  0  0  0  0  0
   43.5740   26.0110  -12.7080 C   0  0  0  0  0  0  0  0  0  0  0  0
   42.3860   26.2830  -13.6130 C   0  0  0  0  0  0  0  0  0  0  0  0
   42.5110   25.9770  -14.9790 C   0  0  0  0  0  0  0  0  0  0  0  0
   41.4590   26.2140  -15.8670 C   0  0  0  0  0  0  0  0  0  0  0  0
   40.2510   26.7560  -15.4170 C   0  0  0  0  0  0  0  0  0  0  0  0
   39.1570   27.0150  -16.3770 C   0  0  0  0  0  0  0  0  0  0  0  0
   38.3450   28.0780  -15.9990 O   0  0  0  0  0  0  0  0  0  0  0  0
   37.2910   28.4250  -16.8060 C   0  0  0  0  0  0  0  0  0  0  0  0
   36.4930   29.4890  -16.3810 C   0  0  0  0  0  0  0  0  0  0  0  0
   35.4040   29.8950  -17.1560 C   0  0  0  0  0  0  0  0  0  0  0  0
   35.1140   29.2380  -18.3530 C   0  0  0  0  0  0  0  0  0  0  0  0
   35.9120   28.1780  -18.7750 C   0  0  0  0  0  0  0  0  0  0  0  0
   35.5710   27.5790  -19.9570 O   0  0  0  0  0  0  0  0  0  0  0  0
   37.0000   27.7710  -17.9990 C   0  0  0  0  0  0  0  0  0  0  0  0
   37.8640   26.6610  -18.4050 C   0  0  0  0  0  0  0  0  0  0  0  0
   37.6780   26.0390  -19.4480 O   0  0  0  0  0  0  0  0  0  0  0  0
   38.9880   26.3050  -17.5080 C   0  0  0  0  0  0  0  0  0  0  0  0
   39.8070   25.2640  -17.9050 O   0  0  0  0  0  0  0  0  0  0  0  0
   40.1310   27.0750  -14.0570 C   0  0  0  0  0  0  0  0  0  0  0  0
   41.1810   26.8470  -13.1410 C   0  0  0  0  0  0  0  0  0  0  0  0
   40.9680   27.1970  -11.6850 C   0  0  0  0  0  0  0  0  0  0  0  0
   39.9360   26.5190  -11.1030 F   0  0  0  0  0  0  0  0  0  0  0  0
   42.0600   26.9320  -10.9150 F   0  0  0  0  0  0  0  0  0  0  0  0
   40.6840   28.5160  -11.4920 F   0  0  0  0  0  0  0  0  0  0  0  0
   45.7381   24.4950  -12.3484 H   0  0  0  0  0  0  0  0  0  0  0  0
   44.8383   23.9393  -13.8004 H   0  0  0  0  0  0  0  0  0  0  0  0
   46.6346   23.9340  -13.8004 H   0  0  0  0  0  0  0  0  0  0  0  0
   45.3970   25.8060  -14.9340 H   0  0  0  0  0  0  0  0  0  0  0  0
   47.4342   26.4861  -12.9033 H   0  0  0  0  0  0  0  0  0  0  0  0
   47.7843   25.6585  -14.4587 H   0  0  0  0  0  0  0  0  0  0  0  0
   47.1375   27.3343  -14.4587 H   0  0  0  0  0  0  0  0  0  0  0  0
   45.3992   27.0992  -12.3313 H   0  0  0  0  0  0  0  0  0  0  0  0
   44.5311   27.5293  -13.8771 H   0  0  0  0  0  0  0  0  0  0  0  0
   43.7581   24.9269  -12.6791 H   0  0  0  0  0  0  0  0  0  0  0  0
   43.3359   26.3999  -11.7070 H   0  0  0  0  0  0  0  0  0  0  0  0
   43.4504   25.5448  -15.3542 H   0  0  0  0  0  0  0  0  0  0  0  0
   41.5823   25.9714  -16.9328 H   0  0  0  0  0  0  0  0  0  0  0  0
   36.7214   30.0066  -15.4376 H   0  0  0  0  0  0  0  0  0  0  0  0
   34.7744   30.7332  -16.8227 H   0  0  0  0  0  0  0  0  0  0  0  0
   34.2557   29.5575  -18.9623 H   0  0  0  0  0  0  0  0  0  0  0  0
   36.2390   27.3280  -20.5640 H   0  0  0  0  0  0  0  0  0  0  0  0
   40.4250   24.8980  -17.3030 H   0  0  0  0  0  0  0  0  0  0  0  0
   39.1913   27.5158  -13.6929 H   0  0  0  0  0  0  0  0  0  0  0  0
  1  2  1  0
  2  3  1  0
  2  4  1  0
  4  5  1  0
  5  6  1  0
  6  7  2  0
  7  8  1  0
  8  9  2  0
  9 10  1  0
 10 11  1  0
 11 12  1  0
 12 13  2  0
 13 14  1  0
 14 15  2  0
 15 16  1  0
 16 17  1  0
 16 18  2  0
 18 19  1  0
 19 20  2  0
 19 21  1  0
 21 22  1  0
  9 23  1  0
 23 24  2  0
 24 25  1  0
 25 26  1  0
 25 27  1  0
 25 28  1  0
 24  6  1  0
 21 10  2  0
 18 12  1  0
  1 29  1  0
  1 30  1  0
  1 31  1  0
  2 32  1  0
  3 33  1  0
  3 34  1  0
  3 35  1  0
  4 36  1  0
  4 37  1  0
  5 38  1  0
  5 39  1  0
  7 40  1  0
  8 41  1  0
 13 42  1  0
 14 43  1  0
 15 44  1  0
 17 45  1  0
 22 46  1  0
 23 47  1  0
M  CHG  1   2   1
M  END
>  <meeko>  (3) 
{"is_sidechain": [false], "free_energy": -4.546, "intermolecular_energy": -6.4, "internal_energy": 0.321}

$$$$
