cand_009_out
     RDKit          3D

 41 43  0  0  0  0  0  0  0  0999 V2000
   47.2100   24.1230  -13.5130 C   0  0  0  0  0  0  0  0  0  0  0  0
   45.8740   24.7720  -13.7510 C   0  0  0  0  0  0  0  0  0  0  0  0
   44.7350   23.9520  -13.8170 C   0  0  0  0  0  0  0  0  0  0  0  0
   43.4680   24.4940  -14.0380 C   0  0  0  0  0  0  0  0  0  0  0  0
   43.3020   25.8710  -14.2040 C   0  0  0  0  0  0  0  0  0  0  0  0
   41.9490   26.4300  -14.4110 C   0  0  0  0  0  0  0  0  0  0  0  0
   41.4720   26.2270  -15.7000 O   0  0  0  0  0  0  0  0  0  0  0  0
   40.2260   26.6950  -16.0290 C   0  0  0  0  0  0  0  0  0  0  0  0
   39.7810   26.4550  -17.3300 C   0  0  0  0  0  0  0  0  0  0  0  0
   38.5220   26.9070  -17.7300 C   0  0  0  0  0  0  0  0  0  0  0  0
   37.7070   27.5980  -16.8300 C   0  0  0  0  0  0  0  0  0  0  0  0
   38.1540   27.8360  -15.5330 C   0  0  0  0  0  0  0  0  0  0  0  0
   37.3070   28.5190  -14.7030 O   0  0  0  0  0  0  0  0  0  0  0  0
   39.4140   27.3830  -15.1330 C   0  0  0  0  0  0  0  0  0  0  0  0
   39.9200   27.6110  -13.7790 C   0  0  0  0  0  0  0  0  0  0  0  0
   39.2670   28.2180  -12.9330 O   0  0  0  0  0  0  0  0  0  0  0  0
   41.2660   27.0840  -13.4520 C   0  0  0  0  0  0  0  0  0  0  0  0
   41.7390   27.3180  -12.1750 O   0  0  0  0  0  0  0  0  0  0  0  0
   44.4370   26.6920  -14.1260 C   0  0  0  0  0  0  0  0  0  0  0  0
   45.7300   26.1670  -13.9070 C   0  0  0  0  0  0  0  0  0  0  0  0
   46.9210   27.1180  -13.8460 C   0  0  0  0  0  0  0  0  0  0  0  0
   48.0480   26.6680  -14.7820 C   0  0  0  0  0  0  0  0  0  0  0  0
   47.4350   27.2880  -12.4130 C   0  0  0  0  0  0  0  0  0  0  0  0
   47.3881   24.0365  -12.4310 H   0  0  0  0  0  0  0  0  0  0  0  0
   47.2170   23.1211  -13.9670 H   0  0  0  0  0  0  0  0  0  0  0  0
   48.0019   24.7368  -13.9670 H   0  0  0  0  0  0  0  0  0  0  0  0
   44.8437   22.8645  -13.6924 H   0  0  0  0  0  0  0  0  0  0  0  0
   42.5917   23.8305  -14.0819 H   0  0  0  0  0  0  0  0  0  0  0  0
   40.4215   25.9104  -18.0393 H   0  0  0  0  0  0  0  0  0  0  0  0
   38.1712   26.7187  -18.7554 H   0  0  0  0  0  0  0  0  0  0  0  0
   36.7148   27.9531  -17.1452 H   0  0  0  0  0  0  0  0  0  0  0  0
   36.3850   28.3560  -14.7380 H   0  0  0  0  0  0  0  0  0  0  0  0
   41.4470   26.7850  -11.4620 H   0  0  0  0  0  0  0  0  0  0  0  0
   44.3161   27.7795  -14.2390 H   0  0  0  0  0  0  0  0  0  0  0  0
   46.5675   28.1002  -14.1929 H   0  0  0  0  0  0  0  0  0  0  0  0
   48.9059   26.3255  -14.1847 H   0  0  0  0  0  0  0  0  0  0  0  0
   47.6905   25.8437  -15.4165 H   0  0  0  0  0  0  0  0  0  0  0  0
   48.3566   27.5119  -15.4165 H   0  0  0  0  0  0  0  0  0  0  0  0
   46.6369   27.0240  -11.7035 H   0  0  0  0  0  0  0  0  0  0  0  0
   48.3006   26.6283  -12.2533 H   0  0  0  0  0  0  0  0  0  0  0  0
   47.7366   28.3337  -12.2533 H   0  0  0  0  0  0  0  0  0  0  0  0
  1  2  1  0
  2  3  2  0
  3  4  1  0
  4  5  2  0
  5  6  1  0
  6  7  1  0
  7  8  1  0
  8  9  2  0
  9 10  1  0
 10 11  2  0
 11 12  1  0
 12 13  1  0
 12 14  2  0
 14 15  1  0
 15 16  2  0
 15 17  1  0
 17 18  1  0
  5 19  1  0
 19 20  2  0
 20 21  1  0
 21 22  1  0
 21 23  1  0
 20  2  1  0
 17  6  2  0
 14  8  1  0
  1 24  1  0
  1 25  1  0
  1 26  1  0
  3 27  1  0
  4 28  1  0
  9 29  1  0
 10 30  1  0
 11 31  1  0
 13 32  1  0
 18 33  1  0
 19 34  1  0
 21 35  1  0
 22 36  1  0
 22 37  1  0
 22 38  1  0
 23 39  1  0
 23 40  1  0
 23 41  1  0
M  END
>  <meeko>  (1) 
{"is_sidechain": [false], "free_energy": -6.493, "intermolecular_energy": -7.632, "internal_energy": 0.196}

$$$$
cand_009_out
     RDKit          3D

 41 43  0  0  0  0  0  0  0  0999 V2000
   36.7980   27.1750  -18.8560 C   0  0  0  0  0  0  0  0  0  0  0  0
   37.8220   27.0790  -17.7590 C   0  0  0  0  0  0  0  0  0  0  0  0
   38.9060   26.2020  -17.9320 C   0  0  0  0  0  0  0  0  0  0  0  0
   39.8880   26.0670  -16.9490 C   0  0  0  0  0  0  0  0  0  0  0  0
   39.8130   26.7990  -15.7620 C   0  0  0  0  0  0  0  0  0  0  0  0
   40.8750   26.6620  -14.7430 C   0  0  0  0  0  0  0  0  0  0  0  0
   42.0040   26.0080  -15.2250 O   0  0  0  0  0  0  0  0  0  0  0  0
   43.0690   25.8150  -14.3830 C   0  0  0  0  0  0  0  0  0  0  0  0
   44.1860   25.1670  -14.9130 C   0  0  0  0  0  0  0  0  0  0  0  0
   45.3040   24.9370  -14.1070 C   0  0  0  0  0  0  0  0  0  0  0  0
   45.3040   25.3520  -12.7740 C   0  0  0  0  0  0  0  0  0  0  0  0
   44.1880   25.9970  -12.2480 C   0  0  0  0  0  0  0  0  0  0  0  0
   44.2540   26.3760  -10.9350 O   0  0  0  0  0  0  0  0  0  0  0  0
   43.0690   26.2280  -13.0540 C   0  0  0  0  0  0  0  0  0  0  0  0
   41.8770   26.9030  -12.5410 C   0  0  0  0  0  0  0  0  0  0  0  0
   41.7970   27.2900  -11.3770 O   0  0  0  0  0  0  0  0  0  0  0  0
   40.7480   27.1060  -13.4790 C   0  0  0  0  0  0  0  0  0  0  0  0
   39.6210   27.7320  -12.9800 O   0  0  0  0  0  0  0  0  0  0  0  0
   38.7370   27.6820  -15.5930 C   0  0  0  0  0  0  0  0  0  0  0  0
   37.7280   27.8350  -16.5710 C   0  0  0  0  0  0  0  0  0  0  0  0
   36.5810   28.8060  -16.3140 C   0  0  0  0  0  0  0  0  0  0  0  0
   36.5590   29.9360  -17.3490 C   0  0  0  0  0  0  0  0  0  0  0  0
   36.6250   29.3700  -14.8910 C   0  0  0  0  0  0  0  0  0  0  0  0
   35.7950   27.2690  -18.4142 H   0  0  0  0  0  0  0  0  0  0  0  0
   37.0088   28.0573  -19.4782 H   0  0  0  0  0  0  0  0  0  0  0  0
   36.8411   26.2689  -19.4782 H   0  0  0  0  0  0  0  0  0  0  0  0
   38.9821   25.6120  -18.8573 H   0  0  0  0  0  0  0  0  0  0  0  0
   40.7293   25.3771  -17.1110 H   0  0  0  0  0  0  0  0  0  0  0  0
   44.1861   24.8382  -15.9627 H   0  0  0  0  0  0  0  0  0  0  0  0
   46.1857   24.4280  -14.5235 H   0  0  0  0  0  0  0  0  0  0  0  0
   46.1844   25.1696  -12.1403 H   0  0  0  0  0  0  0  0  0  0  0  0
   44.8760   27.0230  -10.6660 H   0  0  0  0  0  0  0  0  0  0  0  0
   39.5460   28.6650  -13.0200 H   0  0  0  0  0  0  0  0  0  0  0  0
   38.6761   28.2753  -14.6687 H   0  0  0  0  0  0  0  0  0  0  0  0
   35.6467   28.2348  -16.4180 H   0  0  0  0  0  0  0  0  0  0  0  0
   36.5401   30.9066  -16.8318 H   0  0  0  0  0  0  0  0  0  0  0  0
   37.4585   29.8737  -17.9791 H   0  0  0  0  0  0  0  0  0  0  0  0
   35.6626   29.8387  -17.9791 H   0  0  0  0  0  0  0  0  0  0  0  0
   36.5606   28.5442  -14.1671 H   0  0  0  0  0  0  0  0  0  0  0  0
   37.5684   29.9156  -14.7418 H   0  0  0  0  0  0  0  0  0  0  0  0
   35.7776   30.0553  -14.7418 H   0  0  0  0  0  0  0  0  0  0  0  0
  1  2  1  0
  2  3  2  0
  3  4  1  0
  4  5  2  0
  5  6  1  0
  6  7  1  0
  7  8  1  0
  8  9  2  0
  9 10  1  0
 10 11  2  0
 11 12  1  0
 12 13  1  0
 12 14  2  0
 14 15  1  0
 15 16  2  0
 15 17  1  0
 17 18  1  0
  5 19  1  0
 19 20  2  0
 20 21  1  0
 21 22  1  0
 21 23  1  0
 20  2  1  0
 17  6  2  0
 14  8  1  0
  1 24  1  0
  1 25  1  0
  1 26  1  0
  3 27  1  0
  4 28  1  0
  9 29  1  0
 10 30  1  0
 11 31  1  0
 13 32  1  0
 18 33  1  0
 19 34  1  0
 21 35  1  0
 22 36  1  0
 22 37  1  0
 22 38  1  0
 23 39  1  0
 23 40  1  0
 23 41  1  0
M  END
>  <meeko>  (2) 
{"is_sidechain": [false], "free_energy": -6.171, "intermolecular_energy": -7.382, "internal_energy": 0.325}

$$$$
cand_009_out
     RDKit          3D

 41 43  0  0  0  0  0  0  0  0999 V2000
   44.5990   26.0660  -11.2290 C   0  0  0  0  0  0  0  0  0  0  0  0
   43.5340   26.3010  -12.2640 C   0  0  0  0  0  0  0  0  0  0  0  0
   42.2740   26.7500  -11.8350 C   0  0  0  0  0  0  0  0  0  0  0  0
   41.2430   26.9840  -12.7470 C   0  0  0  0  0  0  0  0  0  0  0  0
   41.4390   26.7730  -14.1130 C   0  0  0  0  0  0  0  0  0  0  0  0
   40.3440   27.0510  -15.0670 C   0  0  0  0  0  0  0  0  0  0  0  0
   39.3800   27.9070  -14.5470 O   0  0  0  0  0  0  0  0  0  0  0  0
   38.3060   28.2500  -15.3280 C   0  0  0  0  0  0  0  0  0  0  0  0
   37.3710   29.1230  -14.7710 C   0  0  0  0  0  0  0  0  0  0  0  0
   36.2530   29.5110  -15.5130 C   0  0  0  0  0  0  0  0  0  0  0  0
   36.0700   29.0270  -16.8100 C   0  0  0  0  0  0  0  0  0  0  0  0
   37.0050   28.1560  -17.3630 C   0  0  0  0  0  0  0  0  0  0  0  0
   36.7650   27.7180  -18.6370 O   0  0  0  0  0  0  0  0  0  0  0  0
   38.1240   27.7670  -16.6200 C   0  0  0  0  0  0  0  0  0  0  0  0
   39.1300   26.8540  -17.1640 C   0  0  0  0  0  0  0  0  0  0  0  0
   39.0360   26.3790  -18.2930 O   0  0  0  0  0  0  0  0  0  0  0  0
   40.2830   26.5120  -16.2990 C   0  0  0  0  0  0  0  0  0  0  0  0
   41.2200   25.6380  -16.8180 O   0  0  0  0  0  0  0  0  0  0  0  0
   42.7010   26.3360  -14.5430 C   0  0  0  0  0  0  0  0  0  0  0  0
   43.7590   26.0880  -13.6410 C   0  0  0  0  0  0  0  0  0  0  0  0
   45.1010   25.6030  -14.1790 C   0  0  0  0  0  0  0  0  0  0  0  0
   45.4210   24.1850  -13.6940 C   0  0  0  0  0  0  0  0  0  0  0  0
   46.2350   26.5710  -13.8250 C   0  0  0  0  0  0  0  0  0  0  0  0
   44.1616   26.1625  -10.2243 H   0  0  0  0  0  0  0  0  0  0  0  0
   45.0138   25.0547  -11.3527 H   0  0  0  0  0  0  0  0  0  0  0  0
   45.4008   26.8088  -11.3527 H   0  0  0  0  0  0  0  0  0  0  0  0
   42.0966   26.9201  -10.7628 H   0  0  0  0  0  0  0  0  0  0  0  0
   40.2664   27.3382  -12.3855 H   0  0  0  0  0  0  0  0  0  0  0  0
   37.5140   29.5050  -13.7494 H   0  0  0  0  0  0  0  0  0  0  0  0
   35.5152   30.1992  -15.0748 H   0  0  0  0  0  0  0  0  0  0  0  0
   35.1892   29.3331  -17.3935 H   0  0  0  0  0  0  0  0  0  0  0  0
   36.5940   28.3360  -19.3190 H   0  0  0  0  0  0  0  0  0  0  0  0
   42.1340   25.8270  -16.7360 H   0  0  0  0  0  0  0  0  0  0  0  0
   42.8721   26.1814  -15.6186 H   0  0  0  0  0  0  0  0  0  0  0  0
   45.0172   25.5733  -15.2754 H   0  0  0  0  0  0  0  0  0  0  0  0
   45.4253   24.1659  -12.5942 H   0  0  0  0  0  0  0  0  0  0  0  0
   44.6576   23.4879  -14.0698 H   0  0  0  0  0  0  0  0  0  0  0  0
   46.4098   23.8833  -14.0698 H   0  0  0  0  0  0  0  0  0  0  0  0
   46.3241   26.6471  -12.7313 H   0  0  0  0  0  0  0  0  0  0  0  0
   47.1806   26.1973  -14.2448 H   0  0  0  0  0  0  0  0  0  0  0  0
   46.0143   27.5635  -14.2448 H   0  0  0  0  0  0  0  0  0  0  0  0
  1  2  1  0
  2  3  2  0
  3  4  1  0
  4  5  2  0
  5  6  1  0
  6  7  1  0
  7  8  1  0
  8  9  2  0
  9 10  1  0
 10 11  2  0
 11 12  1  0
 12 13  1  0
 12 14  2  0
 14 15  1  0
 15 16  2  0
 15 17  1  0
 17 18  1  0
  5 19  1  0
 19 20  2  0
 20 21  1  0
 21 22  1  0
 21 23  1  0
 20  2  1  0
 17  6  2  0
 14  8  1  0
  1 24  1  0
  1 25  1  0
  1 26  1  0
  3 27  1  0
  4 28  1  0
  9 29  1  0
 10 30  1  0
 11 31  1  0
 13 32  1  0
 18 33  1  0
 19 34  1  0
 21 35  1  0
 22 36  1  0
 22 37  1  0
 22 38  1  0
 23 39  1  0
 23 40  1  0
 23 41  1  0
M  END
>  <meeko>  (3) 
{"is_sidechain": [false], "free_energy": -6.142, "intermolecular_energy": -7.668, "internal_energy": 0.646}

$$$$
cand_009_out
     RDKit          3D

 41 43  0  0  0  0  0  0  0  0999 V2000
   44.5500   25.9000  -11.2280 C   0  0  0  0  0  0  0  0  0  0  0  0
   43.3890   26.3020  -12.0950 C   0  0  0  0  0  0  0  0  0  0  0  0
   42.2110   26.7440  -11.4700 C   0  0  0  0  0  0  0  0  0  0  0  0
   41.0970   27.1280  -12.2200 C   0  0  0  0  0  0  0  0  0  0  0  0
   41.1270   27.0780  -13.6160 C   0  0  0  0  0  0  0  0  0  0  0  0
   39.9480   27.5130  -14.3940 C   0  0  0  0  0  0  0  0  0  0  0  0
   39.8500   26.8790  -15.6270 O   0  0  0  0  0  0  0  0  0  0  0  0
   38.7990   27.1880  -16.4520 C   0  0  0  0  0  0  0  0  0  0  0  0
   38.7320   26.5160  -17.6730 C   0  0  0  0  0  0  0  0  0  0  0  0
   37.6880   26.7870  -18.5600 C   0  0  0  0  0  0  0  0  0  0  0  0
   36.7130   27.7300  -18.2270 C   0  0  0  0  0  0  0  0  0  0  0  0
   36.7830   28.3990  -17.0080 C   0  0  0  0  0  0  0  0  0  0  0  0
   35.7960   29.3100  -16.7460 O   0  0  0  0  0  0  0  0  0  0  0  0
   37.8270   28.1270  -16.1200 C   0  0  0  0  0  0  0  0  0  0  0  0
   37.9370   28.8080  -14.8290 C   0  0  0  0  0  0  0  0  0  0  0  0
   37.1230   29.6550  -14.4680 O   0  0  0  0  0  0  0  0  0  0  0  0
   39.0770   28.4420  -13.9570 C   0  0  0  0  0  0  0  0  0  0  0  0
   39.1780   29.1010  -12.7460 O   0  0  0  0  0  0  0  0  0  0  0  0
   42.3070   26.6480  -14.2400 C   0  0  0  0  0  0  0  0  0  0  0  0
   43.4460   26.2500  -13.5040 C   0  0  0  0  0  0  0  0  0  0  0  0
   44.6910   25.7830  -14.2500 C   0  0  0  0  0  0  0  0  0  0  0  0
   45.0880   24.3600  -13.8430 C   0  0  0  0  0  0  0  0  0  0  0  0
   45.8620   26.7520  -14.0590 C   0  0  0  0  0  0  0  0  0  0  0  0
   44.2681   25.9976  -10.1692 H   0  0  0  0  0  0  0  0  0  0  0  0
   44.8217   24.8554  -11.4403 H   0  0  0  0  0  0  0  0  0  0  0  0
   45.4095   26.5529  -11.4403 H   0  0  0  0  0  0  0  0  0  0  0  0
   42.1652   26.7884  -10.3719 H   0  0  0  0  0  0  0  0  0  0  0  0
   40.1874   27.4731  -11.7067 H   0  0  0  0  0  0  0  0  0  0  0  0
   39.5002   25.7741  -17.9364 H   0  0  0  0  0  0  0  0  0  0  0  0
   37.6334   26.2570  -19.5224 H   0  0  0  0  0  0  0  0  0  0  0  0
   35.8914   27.9437  -18.9265 H   0  0  0  0  0  0  0  0  0  0  0  0
   35.7800   29.7580  -15.9230 H   0  0  0  0  0  0  0  0  0  0  0  0
   39.0660   28.6300  -11.9440 H   0  0  0  0  0  0  0  0  0  0  0  0
   42.3474   26.6195  -15.3389 H   0  0  0  0  0  0  0  0  0  0  0  0
   44.4391   25.7706  -15.3207 H   0  0  0  0  0  0  0  0  0  0  0  0
   45.1090   24.2848  -12.7458 H   0  0  0  0  0  0  0  0  0  0  0  0
   44.3549   23.6455  -14.2455 H   0  0  0  0  0  0  0  0  0  0  0  0
   46.0851   24.1282  -14.2455 H   0  0  0  0  0  0  0  0  0  0  0  0
   46.0427   26.9015  -12.9843 H   0  0  0  0  0  0  0  0  0  0  0  0
   46.7647   26.3332  -14.5278 H   0  0  0  0  0  0  0  0  0  0  0  0
   45.6195   27.7171  -14.5278 H   0  0  0  0  0  0  0  0  0  0  0  0
  1  2  1  0
  2  3  2  0
  3  4  1  0
  4  5  2  0
  5  6  1  0
  6  7  1  0
  7  8  1  0
  8  9  2  0
  9 10  1  0
 10 11  2  0
 11 12  1  0
 12 13  1  0
 12 14  2  0
 14 15  1  0
 15 16  2  0
 15 17  1  0
 17 18  1  0
  5 19  1  0
 19 20  2  0
 20 21  1  0
 21 22  1  0
 21 23  1  0
 20  2  1  0
 17  6  2  0
 14  8  1  0
  1 24  1  0
  1 25  1  0
  1 26  1  0
  3 27  1  0
  4 28  1  0
  9 29  1  0
 10 30  1  0
 11 31  1  0
 13 32  1  0
 18 33  1  0
 19 34  1  0
 21 35  1  0
 22 36  1  0
 22 37  1  0
 22 38  1  0
 23 39  1  0
 23 40  1  0
 23 41  1  0
M  END
>  <meeko>  (4) 
{"is_sidechain": [false], "free_energy": -5.969, "intermolecular_energy": -7.463, "internal_energy": 0.644}

$$$$
cand_009_out
     RDKit          3D

 41 43  0  0  0  0  0  0  0  0999 V2000
   45.3110   24.1300  -13.2120 C   0  0  0  0  0  0  0  0  0  0  0  0
   44.1210   24.8090  -13.8350 C   0  0  0  0  0  0  0  0  0  0  0  0
   43.1960   24.0200  -14.5380 C   0  0  0  0  0  0  0  0  0  0  0  0
   42.0730   24.5900  -15.1410 C   0  0  0  0  0  0  0  0  0  0  0  0
   41.8450   25.9660  -15.0630 C   0  0  0  0  0  0  0  0  0  0  0  0
   40.6370   26.5490  -15.6860 C   0  0  0  0  0  0  0  0  0  0  0  0
   39.9020   27.3340  -14.8060 O   0  0  0  0  0  0  0  0  0  0  0  0
   38.7550   27.9380  -15.2540 C   0  0  0  0  0  0  0  0  0  0  0  0
   38.0560   28.7290  -14.3410 C   0  0  0  0  0  0  0  0  0  0  0  0
   36.8800   29.3710  -14.7330 C   0  0  0  0  0  0  0  0  0  0  0  0
   36.4010   29.2210  -16.0370 C   0  0  0  0  0  0  0  0  0  0  0  0
   37.1010   28.4310  -16.9460 C   0  0  0  0  0  0  0  0  0  0  0  0
   36.5760   28.3260  -18.2050 O   0  0  0  0  0  0  0  0  0  0  0  0
   38.2780   27.7890  -16.5530 C   0  0  0  0  0  0  0  0  0  0  0  0
   39.0430   26.9510  -17.4770 C   0  0  0  0  0  0  0  0  0  0  0  0
   38.6830   26.7640  -18.6370 O   0  0  0  0  0  0  0  0  0  0  0  0
   40.2830   26.3210  -16.9640 C   0  0  0  0  0  0  0  0  0  0  0  0
   40.9900   25.5210  -17.8420 O   0  0  0  0  0  0  0  0  0  0  0  0
   42.7630   26.7520  -14.3520 C   0  0  0  0  0  0  0  0  0  0  0  0
   43.9080   26.2000  -13.7370 C   0  0  0  0  0  0  0  0  0  0  0  0
   44.8700   27.1180  -12.9890 C   0  0  0  0  0  0  0  0  0  0  0  0
   44.4310   28.5830  -13.0780 C   0  0  0  0  0  0  0  0  0  0  0  0
   46.3110   26.9480  -13.4820 C   0  0  0  0  0  0  0  0  0  0  0  0
   45.2280   24.1773  -12.1162 H   0  0  0  0  0  0  0  0  0  0  0  0
   45.3422   23.0781  -13.5323 H   0  0  0  0  0  0  0  0  0  0  0  0
   46.2324   24.6383  -13.5323 H   0  0  0  0  0  0  0  0  0  0  0  0
   43.3589   22.9349  -14.6149 H   0  0  0  0  0  0  0  0  0  0  0  0
   41.3612   23.9496  -15.6825 H   0  0  0  0  0  0  0  0  0  0  0  0
   38.4313   28.8464  -13.3137 H   0  0  0  0  0  0  0  0  0  0  0  0
   36.3296   29.9959  -14.0142 H   0  0  0  0  0  0  0  0  0  0  0  0
   35.4733   29.7256  -16.3450 H   0  0  0  0  0  0  0  0  0  0  0  0
   36.8060   28.9550  -18.8610 H   0  0  0  0  0  0  0  0  0  0  0  0
   41.5490   24.8440  -17.5130 H   0  0  0  0  0  0  0  0  0  0  0  0
   42.5853   27.8345  -14.2706 H   0  0  0  0  0  0  0  0  0  0  0  0
   44.8417   26.8215  -11.9301 H   0  0  0  0  0  0  0  0  0  0  0  0
   44.3086   28.9914  -12.0640 H   0  0  0  0  0  0  0  0  0  0  0  0
   45.1949   29.1626  -13.6170 H   0  0  0  0  0  0  0  0  0  0  0  0
   43.4742   28.6470  -13.6170 H   0  0  0  0  0  0  0  0  0  0  0  0
   46.9871   26.8682  -12.6180 H   0  0  0  0  0  0  0  0  0  0  0  0
   46.3849   26.0349  -14.0909 H   0  0  0  0  0  0  0  0  0  0  0  0
   46.5953   27.8188  -14.0909 H   0  0  0  0  0  0  0  0  0  0  0  0
  1  2  1  0
  2  3  2  0
  3  4  1  0
  4  5  2  0
  5  6  1  0
  6  7  1  0
  7  8  1  0
  8  9  2  0
  9 10  1  0
 10 11  2  0
 11 12  1  0
 12 13  1  0
 12 14  2  0
 14 15  1  0
 15 16  2  0
 15 17  1  0
 17 18  1  0
  5 19  1  0
 19 20  2  0
 20 21  1  0
 21 22  1  0
 21 23  1  0
 20  2  1  0
 17  6  2  0
 14  8  1  0
  1 24  1  0
  1 25  1  0
  1 26  1  0
  3 27  1  0
  4 28  1  0
  9 29  1  0
 10 30  1  0
 11 31  1  0
 13 32  1  0
 18 33  1  0
 19 34  1  0
 21 35  1  0
 22 36  1  0
 22 37  1  0
 22 38  1  0
 23 39  1  0
 23 40  1  0
 23 41  1  0
M  END
>  <meeko>  (5) 
{"is_sidechain": [false], "free_energy": -5.769, "intermolecular_energy": -6.784, "internal_energy": 0.199}

$$$$
cand_009_out
     RDKit          3D

 41 43  0  0  0  0  0  0  0  0999 V2000
   41.9930   26.9500  -11.1620 C   0  0  0  0  0  0  0  0  0  0  0  0
   41.1680   27.0120  -12.4180 C   0  0  0  0  0  0  0  0  0  0  0  0
   39.8390   27.4600  -12.3230 C   0  0  0  0  0  0  0  0  0  0  0  0
   39.0220   27.5380  -13.4520 C   0  0  0  0  0  0  0  0  0  0  0  0
   39.5060   27.1660  -14.7080 C   0  0  0  0  0  0  0  0  0  0  0  0
   38.6340   27.2800  -15.8960 C   0  0  0  0  0  0  0  0  0  0  0  0
   37.7100   28.3140  -15.7920 O   0  0  0  0  0  0  0  0  0  0  0  0
   36.8380   28.5330  -16.8270 C   0  0  0  0  0  0  0  0  0  0  0  0
   35.9380   29.5900  -16.6860 C   0  0  0  0  0  0  0  0  0  0  0  0
   35.0220   29.8650  -17.7030 C   0  0  0  0  0  0  0  0  0  0  0  0
   35.0040   29.0840  -18.8600 C   0  0  0  0  0  0  0  0  0  0  0  0
   35.9030   28.0290  -18.9980 C   0  0  0  0  0  0  0  0  0  0  0  0
   35.8310   27.3030  -20.1560 O   0  0  0  0  0  0  0  0  0  0  0  0
   36.8200   27.7540  -17.9800 C   0  0  0  0  0  0  0  0  0  0  0  0
   37.7820   26.6560  -18.0860 C   0  0  0  0  0  0  0  0  0  0  0  0
   37.8230   25.9190  -19.0690 O   0  0  0  0  0  0  0  0  0  0  0  0
   38.7170   26.4530  -16.9550 C   0  0  0  0  0  0  0  0  0  0  0  0
   39.6110   25.4040  -17.0600 O   0  0  0  0  0  0  0  0  0  0  0  0
   40.8350   26.7300  -14.8060 C   0  0  0  0  0  0  0  0  0  0  0  0
   41.6810   26.6390  -13.6780 C   0  0  0  0  0  0  0  0  0  0  0  0
   43.1130   26.1450  -13.8580 C   0  0  0  0  0  0  0  0  0  0  0  0
   44.0720   27.3010  -14.1580 C   0  0  0  0  0  0  0  0  0  0  0  0
   43.2060   25.0630  -14.9390 C   0  0  0  0  0  0  0  0  0  0  0  0
   41.3305   26.9998  -10.2853 H   0  0  0  0  0  0  0  0  0  0  0  0
   42.5587   26.0068  -11.1410 H   0  0  0  0  0  0  0  0  0  0  0  0
   42.6933   27.7981  -11.1410 H   0  0  0  0  0  0  0  0  0  0  0  0
   39.4362   27.7540  -11.3426 H   0  0  0  0  0  0  0  0  0  0  0  0
   37.9868   27.8960  -13.3514 H   0  0  0  0  0  0  0  0  0  0  0  0
   35.9503   30.2058  -15.7746 H   0  0  0  0  0  0  0  0  0  0  0  0
   34.3130   30.6987  -17.5925 H   0  0  0  0  0  0  0  0  0  0  0  0
   34.2817   29.3012  -19.6607 H   0  0  0  0  0  0  0  0  0  0  0  0
   35.5580   26.4070  -20.1300 H   0  0  0  0  0  0  0  0  0  0  0  0
   40.5220   25.5450  -16.8880 H   0  0  0  0  0  0  0  0  0  0  0  0
   41.2318   26.4497  -15.7929 H   0  0  0  0  0  0  0  0  0  0  0  0
   43.4198   25.6914  -12.9040 H   0  0  0  0  0  0  0  0  0  0  0  0
   44.4313   27.7341  -13.2128 H   0  0  0  0  0  0  0  0  0  0  0  0
   44.9280   26.9261  -14.7383 H   0  0  0  0  0  0  0  0  0  0  0  0
   43.5455   28.0730  -14.7383 H   0  0  0  0  0  0  0  0  0  0  0  0
   43.2909   24.0751  -14.4627 H   0  0  0  0  0  0  0  0  0  0  0  0
   42.3021   25.0916  -15.5652 H   0  0  0  0  0  0  0  0  0  0  0  0
   44.0918   25.2455  -15.5652 H   0  0  0  0  0  0  0  0  0  0  0  0
  1  2  1  0
  2  3  2  0
  3  4  1  0
  4  5  2  0
  5  6  1  0
  6  7  1  0
  7  8  1  0
  8  9  2  0
  9 10  1  0
 10 11  2  0
 11 12  1  0
 12 13  1  0
 12 14  2  0
 14 15  1  0
 15 16  2  0
 15 17  1  0
 17 18  1  0
  5 19  1  0
 19 20  2  0
 20 21  1  0
 21 22  1  0
 21 23  1  0
 20  2  1  0
 17  6  2  0
 14  8  1  0
  1 24  1  0
  1 25  1  0
  1 26  1  0
  3 27  1  0
  4 28  1  0
  9 29  1  0
 10 30  1  0
 11 31  1  0
 13 32  1  0
 18 33  1  0
 19 34  1  0
 21 35  1  0
 22 36  1  0
 22 37  1  0
 22 38  1  0
 23 39  1  0
 23 40  1  0
 23 41  1  0
M  END
>  <meeko>  (6) 
{"is_sidechain": [false], "free_energy": -5.573, "intermolecular_energy": -6.167, "internal_energy": -0.188}

$$$$
cand_009_out
     RDKit          3D

 41 43  0  0  0  0  0  0  0  0999 V2000
   45.9150   24.1000  -13.3280 C   0  0  0  0  0  0  0  0  0  0  0  0
   44.6860   24.7720  -13.8760 C   0  0  0  0  0  0  0  0  0  0  0  0
   43.5650   23.9770  -14.1670 C   0  0  0  0  0  0  0  0  0  0  0  0
   42.3950   24.5410  -14.6800 C   0  0  0  0  0  0  0  0  0  0  0  0
   42.3130   25.9150  -14.9210 C   0  0  0  0  0  0  0  0  0  0  0  0
   41.0580   26.4980  -15.4400 C   0  0  0  0  0  0  0  0  0  0  0  0
   40.3970   27.2800  -14.5010 O   0  0  0  0  0  0  0  0  0  0  0  0
   39.2170   27.8840  -14.8520 C   0  0  0  0  0  0  0  0  0  0  0  0
   38.5950   28.6730  -13.8820 C   0  0  0  0  0  0  0  0  0  0  0  0
   37.3890   29.3140  -14.1740 C   0  0  0  0  0  0  0  0  0  0  0  0
   36.8050   29.1670  -15.4340 C   0  0  0  0  0  0  0  0  0  0  0  0
   37.4270   28.3790  -16.3990 C   0  0  0  0  0  0  0  0  0  0  0  0
   36.8010   28.2770  -17.6110 O   0  0  0  0  0  0  0  0  0  0  0  0
   38.6340   27.7380  -16.1070 C   0  0  0  0  0  0  0  0  0  0  0  0
   39.3210   26.9020  -17.0930 C   0  0  0  0  0  0  0  0  0  0  0  0
   38.8660   26.7170  -18.2190 O   0  0  0  0  0  0  0  0  0  0  0  0
   40.5990   26.2730  -16.6860 C   0  0  0  0  0  0  0  0  0  0  0  0
   41.2320   25.4750  -17.6210 O   0  0  0  0  0  0  0  0  0  0  0  0
   43.4280   26.7100  -14.6200 C   0  0  0  0  0  0  0  0  0  0  0  0
   44.6250   26.1630  -14.1040 C   0  0  0  0  0  0  0  0  0  0  0  0
   45.8020   27.0870  -13.8110 C   0  0  0  0  0  0  0  0  0  0  0  0
   47.0840   26.5950  -14.4910 C   0  0  0  0  0  0  0  0  0  0  0  0
   46.0170   27.2690  -12.3050 C   0  0  0  0  0  0  0  0  0  0  0  0
   45.8831   24.1175  -12.2286 H   0  0  0  0  0  0  0  0  0  0  0  0
   45.9495   23.0575  -13.6773 H   0  0  0  0  0  0  0  0  0  0  0  0
   46.8113   24.6336  -13.6773 H   0  0  0  0  0  0  0  0  0  0  0  0
   43.6095   22.8926  -13.9879 H   0  0  0  0  0  0  0  0  0  0  0  0
   41.5296   23.8974  -14.8965 H   0  0  0  0  0  0  0  0  0  0  0  0
   39.0543   28.7895  -12.8893 H   0  0  0  0  0  0  0  0  0  0  0  0
   36.8984   29.9355  -13.4104 H   0  0  0  0  0  0  0  0  0  0  0  0
   35.8555   29.6727  -15.6637 H   0  0  0  0  0  0  0  0  0  0  0  0
   36.8910   28.9620  -18.2440 H   0  0  0  0  0  0  0  0  0  0  0  0
   40.7360   24.8590  -18.1240 H   0  0  0  0  0  0  0  0  0  0  0  0
   43.3694   27.7950  -14.7910 H   0  0  0  0  0  0  0  0  0  0  0  0
   45.5523   28.0714  -14.2336 H   0  0  0  0  0  0  0  0  0  0  0  0
   47.8204   26.3124  -13.7243 H   0  0  0  0  0  0  0  0  0  0  0  0
   46.8541   25.7212  -15.1184 H   0  0  0  0  0  0  0  0  0  0  0  0
   47.4977   27.3982  -15.1184 H   0  0  0  0  0  0  0  0  0  0  0  0
   45.2904   26.6539  -11.7539 H   0  0  0  0  0  0  0  0  0  0  0  0
   47.0378   26.9564  -12.0399 H   0  0  0  0  0  0  0  0  0  0  0  0
   45.8772   28.3274  -12.0399 H   0  0  0  0  0  0  0  0  0  0  0  0
  1  2  1  0
  2  3  2  0
  3  4  1  0
  4  5  2  0
  5  6  1  0
  6  7  1  0
  7  8  1  0
  8  9  2  0
  9 10  1  0
 10 11  2  0
 11 12  1  0
 12 13  1  0
 12 14  2  0
 14 15  1  0
 15 16  2  0
 15 17  1  0
 17 18  1  0
  5 19  1  0
 19 20  2  0
 20 21  1  0
 21 22  1  0
 21 23  1  0
 20  2  1  0
 17  6  2  0
 14  8  1  0
  1 24  1  0
  1 25  1  0
  1 26  1  0
  3 27  1  0
  4 28  1  0
  9 29  1  0
 10 30  1  0
 11 31  1  0
 13 32  1  0
 18 33  1  0
 19 34  1  0
 21 35  1  0
 22 36  1  0
 22 37  1  0
 22 38  1  0
 23 39  1  0
 23 40  1  0
 23 41  1  0
M  END
>  <meeko>  (7) 
{"is_sidechain": [false], "free_energy": -5.272, "intermolecular_energy": -6.228, "internal_energy": 0.227}

$$$$
cand_009_out
     RDKit          3D

 41 43  0  0  0  0  0  0  0  0999 V2000
   35.7410   29.3410  -17.1320 C   0  0  0  0  0  0  0  0  0  0  0  0
   36.9390   28.8280  -16.3800 C   0  0  0  0  0  0  0  0  0  0  0  0
   37.0750   29.1730  -15.0250 C   0  0  0  0  0  0  0  0  0  0  0  0
   38.1650   28.7300  -14.2740 C   0  0  0  0  0  0  0  0  0  0  0  0
   39.1540   27.9330  -14.8560 C   0  0  0  0  0  0  0  0  0  0  0  0
   40.2880   27.4530  -14.0380 C   0  0  0  0  0  0  0  0  0  0  0  0
   41.3200   26.9240  -14.8040 O   0  0  0  0  0  0  0  0  0  0  0  0
   42.4370   26.4420  -14.1720 C   0  0  0  0  0  0  0  0  0  0  0  0
   43.4550   25.9350  -14.9810 C   0  0  0  0  0  0  0  0  0  0  0  0
   44.6190   25.4270  -14.3990 C   0  0  0  0  0  0  0  0  0  0  0  0
   44.7640   25.4250  -13.0100 C   0  0  0  0  0  0  0  0  0  0  0  0
   43.7470   25.9310  -12.2060 C   0  0  0  0  0  0  0  0  0  0  0  0
   43.9540   25.8980  -10.8530 O   0  0  0  0  0  0  0  0  0  0  0  0
   42.5830   26.4400  -12.7880 C   0  0  0  0  0  0  0  0  0  0  0  0
   41.4910   26.9820  -11.9790 C   0  0  0  0  0  0  0  0  0  0  0  0
   41.5400   27.0080  -10.7510 O   0  0  0  0  0  0  0  0  0  0  0  0
   40.3020   27.5050  -12.6930 C   0  0  0  0  0  0  0  0  0  0  0  0
   39.2710   28.0020  -11.9180 O   0  0  0  0  0  0  0  0  0  0  0  0
   39.0130   27.5790  -16.2050 C   0  0  0  0  0  0  0  0  0  0  0  0
   37.9210   28.0170  -16.9880 C   0  0  0  0  0  0  0  0  0  0  0  0
   37.8390   27.6030  -18.4530 C   0  0  0  0  0  0  0  0  0  0  0  0
   36.8440   26.4550  -18.6570 C   0  0  0  0  0  0  0  0  0  0  0  0
   39.2170   27.2370  -19.0150 C   0  0  0  0  0  0  0  0  0  0  0  0
   34.9726   29.6701  -16.4170 H   0  0  0  0  0  0  0  0  0  0  0  0
   36.0408   30.1896  -17.7644 H   0  0  0  0  0  0  0  0  0  0  0  0
   35.3337   28.5384  -17.7644 H   0  0  0  0  0  0  0  0  0  0  0  0
   36.3097   29.8028  -14.5479 H   0  0  0  0  0  0  0  0  0  0  0  0
   38.2461   29.0111  -13.2136 H   0  0  0  0  0  0  0  0  0  0  0  0
   43.3410   25.9354  -16.0751 H   0  0  0  0  0  0  0  0  0  0  0  0
   45.4224   25.0280  -15.0357 H   0  0  0  0  0  0  0  0  0  0  0  0
   45.6804   25.0242  -12.5523 H   0  0  0  0  0  0  0  0  0  0  0  0
   44.8270   25.8850  -10.5140 H   0  0  0  0  0  0  0  0  0  0  0  0
   39.2360   28.9150  -11.7130 H   0  0  0  0  0  0  0  0  0  0  0  0
   39.7776   26.9391  -16.6696 H   0  0  0  0  0  0  0  0  0  0  0  0
   37.4695   28.4741  -19.0139 H   0  0  0  0  0  0  0  0  0  0  0  0
   36.5156   26.0761  -17.6779 H   0  0  0  0  0  0  0  0  0  0  0  0
   35.9725   26.8208  -19.2197 H   0  0  0  0  0  0  0  0  0  0  0  0
   37.3299   25.6443  -19.2197 H   0  0  0  0  0  0  0  0  0  0  0  0
   39.9143   27.0518  -18.1846 H   0  0  0  0  0  0  0  0  0  0  0  0
   39.1324   26.3302  -19.6319 H   0  0  0  0  0  0  0  0  0  0  0  0
   39.5935   28.0663  -19.6319 H   0  0  0  0  0  0  0  0  0  0  0  0
  1  2  1  0
  2  3  2  0
  3  4  1  0
  4  5  2  0
  5  6  1  0
  6  7  1  0
  7  8  1  0
  8  9  2  0
  9 10  1  0
 10 11  2  0
 11 12  1  0
 12 13  1  0
 12 14  2  0
 14 15  1  0
 15 16  2  0
 15 17  1  0
 17 18  1  0
  5 19  1  0
 19 20  2  0
 20 21  1  0
 21 22  1  0
 21 23  1  0
 20  2  1  0
 17  6  2  0
 14  8  1  0
  1 24  1  0
  1 25  1  0
  1 26  1  0
  3 27  1  0
  4 28  1  0
  9 29  1  0
 10 30  1  0
 11 31  1  0
 13 32  1  0
 18 33  1  0
 19 34  1  0
 21 35  1  0
 22 36  1  0
 22 37  1  0
 22 38  1  0
 23 39  1  0
 23 40  1  0
 23 41  1  0
M  END
>  <meeko>  (8) 
{"is_sidechain": [false], "free_energy": -4.442, "intermolecular_energy": -5.182, "internal_energy": 0.157}

$$$$
