cand_008_out
     RDKit          3D

 35 37  0  0  0  0  0  0  0  0999 V2000
   38.5310   26.6530  -18.8530 O   0  0  0  0  0  0  0  0  0  0  0  0
   38.8290   26.9480  -17.6980 C   0  0  0  0  0  0  0  0  0  0  0  0
   40.0790   26.4360  -17.0890 C   0  0  0  0  0  0  0  0  0  0  0  0
   40.8680   25.6110  -17.8720 O   0  0  0  0  0  0  0  0  0  0  0  0
   40.3660   26.7820  -15.8210 C   0  0  0  0  0  0  0  0  0  0  0  0
   41.5770   26.3190  -15.1100 C   0  0  0  0  0  0  0  0  0  0  0  0
   42.5220   25.4920  -15.7260 C   0  0  0  0  0  0  0  0  0  0  0  0
   43.6710   25.0850  -15.0430 C   0  0  0  0  0  0  0  0  0  0  0  0
   43.9090   25.4990  -13.7230 C   0  0  0  0  0  0  0  0  0  0  0  0
   45.1650   25.0450  -13.0120 C   0  0  0  0  0  0  0  0  0  0  0  0
   46.1590   25.9790  -13.0300 F   0  0  0  0  0  0  0  0  0  0  0  0
   45.7050   23.9320  -13.5840 F   0  0  0  0  0  0  0  0  0  0  0  0
   42.9770   26.3540  -13.0950 C   0  0  0  0  0  0  0  0  0  0  0  0
   43.1850   26.8350  -11.6760 C   0  0  0  0  0  0  0  0  0  0  0  0
   42.0060   27.0020  -11.0130 F   0  0  0  0  0  0  0  0  0  0  0  0
   43.9040   25.9610  -10.9140 F   0  0  0  0  0  0  0  0  0  0  0  0
   41.8210   26.7470  -13.7960 C   0  0  0  0  0  0  0  0  0  0  0  0
   39.5520   27.5870  -15.0340 O   0  0  0  0  0  0  0  0  0  0  0  0
   38.3910   28.0830  -15.5720 C   0  0  0  0  0  0  0  0  0  0  0  0
   37.6110   28.8980  -14.7500 C   0  0  0  0  0  0  0  0  0  0  0  0
   36.4160   29.4340  -15.2350 C   0  0  0  0  0  0  0  0  0  0  0  0
   36.0030   29.1580  -16.5410 C   0  0  0  0  0  0  0  0  0  0  0  0
   36.7840   28.3450  -17.3580 C   0  0  0  0  0  0  0  0  0  0  0  0
   36.3210   28.1140  -18.6230 O   0  0  0  0  0  0  0  0  0  0  0  0
   37.9800   27.8080  -16.8720 C   0  0  0  0  0  0  0  0  0  0  0  0
   41.4890   25.0380  -17.4690 H   0  0  0  0  0  0  0  0  0  0  0  0
   42.3586   25.1578  -16.7612 H   0  0  0  0  0  0  0  0  0  0  0  0
   44.3987   24.4315  -15.5464 H   0  0  0  0  0  0  0  0  0  0  0  0
   44.8288   24.8532  -11.9823 H   0  0  0  0  0  0  0  0  0  0  0  0
   43.7256   27.7853  -11.7975 H   0  0  0  0  0  0  0  0  0  0  0  0
   41.0915   27.4054  -13.3018 H   0  0  0  0  0  0  0  0  0  0  0  0
   37.9368   29.1176  -13.7226 H   0  0  0  0  0  0  0  0  0  0  0  0
   35.7989   30.0745  -14.5878 H   0  0  0  0  0  0  0  0  0  0  0  0
   35.0627   29.5822  -16.9229 H   0  0  0  0  0  0  0  0  0  0  0  0
   36.8480   27.6390  -19.2350 H   0  0  0  0  0  0  0  0  0  0  0  0
  1  2  2  0
  2  3  1  0
  3  4  1  0
  3  5  2  0
  5  6  1  0
  6  7  2  0
  7  8  1  0
  8  9  2  0
  9 10  1  0
 10 11  1  0
 10 12  1  0
  9 13  1  0
 13 14  1  0
 14 15  1  0
 14 16  1  0
 13 17  2  0
  5 18  1  0
 18 19  1  0
 19 20  2  0
 20 21  1  0
 21 22  2  0
 22 23  1  0
 23 24  1  0
 23 25  2  0
 25  2  1  0
 17  6  1  0
 25 19  1  0
  4 26  1  0
  7 27  1  0
  8 28  1  0
 10 29  1  0
 14 30  1  0
 17 31  1  0
 20 32  1  0
 21 33  1  0
 22 34  1  0
 24 35  1  0
M  END
>  <meeko>  (1) 
{"is_sidechain": [false], "free_energy": -8.052, "intermolecular_energy": -9.935, "internal_energy": 0.448}

$$$$
cand_008_out
     RDKit          3D

 35 37  0  0  0  0  0  0  0  0999 V2000
   38.3310   29.0630  -13.1430 O   0  0  0  0  0  0  0  0  0  0  0  0
   38.9020   28.3640  -13.9780 C   0  0  0  0  0  0  0  0  0  0  0  0
   40.1770   27.6870  -13.6460 C   0  0  0  0  0  0  0  0  0  0  0  0
   40.6880   27.8930  -12.3770 O   0  0  0  0  0  0  0  0  0  0  0  0
   40.7700   26.9330  -14.5900 C   0  0  0  0  0  0  0  0  0  0  0  0
   42.0490   26.2230  -14.3740 C   0  0  0  0  0  0  0  0  0  0  0  0
   42.2820   24.9490  -14.9030 C   0  0  0  0  0  0  0  0  0  0  0  0
   43.5060   24.3050  -14.7060 C   0  0  0  0  0  0  0  0  0  0  0  0
   44.5350   24.9210  -13.9760 C   0  0  0  0  0  0  0  0  0  0  0  0
   45.8510   24.2000  -13.7840 C   0  0  0  0  0  0  0  0  0  0  0  0
   46.3390   24.3050  -12.5140 F   0  0  0  0  0  0  0  0  0  0  0  0
   46.8310   24.6970  -14.5890 F   0  0  0  0  0  0  0  0  0  0  0  0
   44.3240   26.2170  -13.4550 C   0  0  0  0  0  0  0  0  0  0  0  0
   45.3990   26.9300  -12.6650 C   0  0  0  0  0  0  0  0  0  0  0  0
   46.5480   27.0820  -13.3830 F   0  0  0  0  0  0  0  0  0  0  0  0
   45.0410   28.1910  -12.2890 F   0  0  0  0  0  0  0  0  0  0  0  0
   43.0810   26.8470  -13.6570 C   0  0  0  0  0  0  0  0  0  0  0  0
   40.2630   26.7560  -15.8720 O   0  0  0  0  0  0  0  0  0  0  0  0
   39.0800   27.3640  -16.2070 C   0  0  0  0  0  0  0  0  0  0  0  0
   38.6020   27.1490  -17.5010 C   0  0  0  0  0  0  0  0  0  0  0  0
   37.4040   27.7400  -17.9070 C   0  0  0  0  0  0  0  0  0  0  0  0
   36.6840   28.5440  -17.0200 C   0  0  0  0  0  0  0  0  0  0  0  0
   37.1630   28.7570  -15.7310 C   0  0  0  0  0  0  0  0  0  0  0  0
   36.4100   29.5550  -14.9150 O   0  0  0  0  0  0  0  0  0  0  0  0
   38.3630   28.1650  -15.3240 C   0  0  0  0  0  0  0  0  0  0  0  0
   40.2870   27.4790  -11.6390 H   0  0  0  0  0  0  0  0  0  0  0  0
   41.4916   24.4481  -15.4813 H   0  0  0  0  0  0  0  0  0  0  0  0
   43.6657   23.3020  -15.1284 H   0  0  0  0  0  0  0  0  0  0  0  0
   45.6149   23.1534  -14.0265 H   0  0  0  0  0  0  0  0  0  0  0  0
   45.5475   26.2871  -11.7849 H   0  0  0  0  0  0  0  0  0  0  0  0
   42.9151   27.8524  -13.2428 H   0  0  0  0  0  0  0  0  0  0  0  0
   39.1682   26.5152  -18.1994 H   0  0  0  0  0  0  0  0  0  0  0  0
   37.0266   27.5723  -18.9265 H   0  0  0  0  0  0  0  0  0  0  0  0
   35.7395   29.0082  -17.3402 H   0  0  0  0  0  0  0  0  0  0  0  0
   36.1590   30.4110  -15.2010 H   0  0  0  0  0  0  0  0  0  0  0  0
  1  2  2  0
  2  3  1  0
  3  4  1  0
  3  5  2  0
  5  6  1  0
  6  7  2  0
  7  8  1  0
  8  9  2  0
  9 10  1  0
 10 11  1  0
 10 12  1  0
  9 13  1  0
 13 14  1  0
 14 15  1  0
 14 16  1  0
 13 17  2  0
  5 18  1  0
 18 19  1  0
 19 20  2  0
 20 21  1  0
 21 22  2  0
 22 23  1  0
 23 24  1  0
 23 25  2  0
 25  2  1  0
 17  6  1  0
 25 19  1  0
  4 26  1  0
  7 27  1  0
  8 28  1  0
 10 29  1  0
 14 30  1  0
 17 31  1  0
 20 32  1  0
 21 33  1  0
 22 34  1  0
 24 35  1  0
M  END
>  <meeko>  (2) 
{"is_sidechain": [false], "free_energy": -7.885, "intermolecular_energy": -9.473, "internal_energy": 0.192}

$$$$
cand_008_out
     RDKit          3D

 35 37  0  0  0  0  0  0  0  0999 V2000
   41.4550   27.2740  -10.8850 O   0  0  0  0  0  0  0  0  0  0  0  0
   41.3780   27.1430  -12.1040 C   0  0  0  0  0  0  0  0  0  0  0  0
   40.1910   27.6380  -12.8400 C   0  0  0  0  0  0  0  0  0  0  0  0
   39.1890   28.2300  -12.0920 O   0  0  0  0  0  0  0  0  0  0  0  0
   40.1460   27.4710  -14.1740 C   0  0  0  0  0  0  0  0  0  0  0  0
   39.0080   27.9140  -15.0070 C   0  0  0  0  0  0  0  0  0  0  0  0
   38.0740   28.8450  -14.5430 C   0  0  0  0  0  0  0  0  0  0  0  0
   37.0180   29.2670  -15.3550 C   0  0  0  0  0  0  0  0  0  0  0  0
   36.8690   28.7700  -16.6590 C   0  0  0  0  0  0  0  0  0  0  0  0
   35.7180   29.2490  -17.5160 C   0  0  0  0  0  0  0  0  0  0  0  0
   35.5760   28.5380  -18.6710 F   0  0  0  0  0  0  0  0  0  0  0  0
   35.8740   30.5450  -17.9080 F   0  0  0  0  0  0  0  0  0  0  0  0
   37.8180   27.8470  -17.1530 C   0  0  0  0  0  0  0  0  0  0  0  0
   37.7090   27.2820  -18.5520 C   0  0  0  0  0  0  0  0  0  0  0  0
   38.9320   27.0900  -19.1230 F   0  0  0  0  0  0  0  0  0  0  0  0
   37.0990   26.0630  -18.5920 F   0  0  0  0  0  0  0  0  0  0  0  0
   38.8700   27.4270  -16.3170 C   0  0  0  0  0  0  0  0  0  0  0  0
   41.1460   26.8490  -14.9120 O   0  0  0  0  0  0  0  0  0  0  0  0
   42.2610   26.3860  -14.2600 C   0  0  0  0  0  0  0  0  0  0  0  0
   43.2440   25.7790  -15.0420 C   0  0  0  0  0  0  0  0  0  0  0  0
   44.4040   25.2850  -14.4410 C   0  0  0  0  0  0  0  0  0  0  0  0
   44.5800   25.3990  -13.0600 C   0  0  0  0  0  0  0  0  0  0  0  0
   43.5970   26.0050  -12.2830 C   0  0  0  0  0  0  0  0  0  0  0  0
   43.8320   26.0830  -10.9380 O   0  0  0  0  0  0  0  0  0  0  0  0
   42.4360   26.5000  -12.8850 C   0  0  0  0  0  0  0  0  0  0  0  0
   39.3370   29.0610  -11.6860 H   0  0  0  0  0  0  0  0  0  0  0  0
   38.1717   29.2507  -13.5252 H   0  0  0  0  0  0  0  0  0  0  0  0
   36.2939   29.9985  -14.9670 H   0  0  0  0  0  0  0  0  0  0  0  0
   34.8385   29.1202  -16.8681 H   0  0  0  0  0  0  0  0  0  0  0  0
   37.1159   28.0335  -19.0938 H   0  0  0  0  0  0  0  0  0  0  0  0
   39.6016   26.6998  -16.6991 H   0  0  0  0  0  0  0  0  0  0  0  0
   43.1058   25.6896  -16.1296 H   0  0  0  0  0  0  0  0  0  0  0  0
   45.1799   24.8056  -15.0559 H   0  0  0  0  0  0  0  0  0  0  0  0
   45.4941   25.0104  -12.5873 H   0  0  0  0  0  0  0  0  0  0  0  0
   44.0760   25.3140  -10.4610 H   0  0  0  0  0  0  0  0  0  0  0  0
  1  2  2  0
  2  3  1  0
  3  4  1  0
  3  5  2  0
  5  6  1  0
  6  7  2  0
  7  8  1  0
  8  9  2  0
  9 10  1  0
 10 11  1  0
 10 12  1  0
  9 13  1  0
 13 14  1  0
 14 15  1  0
 14 16  1  0
 13 17  2  0
  5 18  1  0
 18 19  1  0
 19 20  2  0
 20 21  1  0
 21 22  2  0
 22 23  1  0
 23 24  1  0
 23 25  2  0
 25  2  1  0
 17  6  1  0
 25 19  1  0
  4 26  1  0
  7 27  1  0
  8 28  1  0
 10 29  1  0
 14 30  1  0
 17 31  1  0
 20 32  1  0
 21 33  1  0
 22 34  1  0
 24 35  1  0
M  END
>  <meeko>  (3) 
{"is_sidechain": [false], "free_energy": -7.234, "intermolecular_energy": -9.037, "internal_energy": 0.56}

$$$$
cand_008_out
     RDKit          3D

 35 37  0  0  0  0  0  0  0  0999 V2000
   38.7330   26.7050  -18.5220 O   0  0  0  0  0  0  0  0  0  0  0  0
   39.1290   26.9030  -17.3750 C   0  0  0  0  0  0  0  0  0  0  0  0
   40.3840   26.2790  -16.8950 C   0  0  0  0  0  0  0  0  0  0  0  0
   41.0640   25.4650  -17.7840 O   0  0  0  0  0  0  0  0  0  0  0  0
   40.7810   26.5210  -15.6320 C   0  0  0  0  0  0  0  0  0  0  0  0
   42.0070   25.9420  -15.0430 C   0  0  0  0  0  0  0  0  0  0  0  0
   42.1940   24.5600  -14.9430 C   0  0  0  0  0  0  0  0  0  0  0  0
   43.3710   24.0330  -14.4040 C   0  0  0  0  0  0  0  0  0  0  0  0
   44.3980   24.8770  -13.9530 C   0  0  0  0  0  0  0  0  0  0  0  0
   45.6620   24.2780  -13.3780 C   0  0  0  0  0  0  0  0  0  0  0  0
   45.8800   24.6300  -12.0780 F   0  0  0  0  0  0  0  0  0  0  0  0
   46.7750   24.6810  -14.0530 F   0  0  0  0  0  0  0  0  0  0  0  0
   44.2350   26.2760  -14.0690 C   0  0  0  0  0  0  0  0  0  0  0  0
   45.3100   27.2330  -13.6040 C   0  0  0  0  0  0  0  0  0  0  0  0
   45.5270   27.1460  -12.2600 F   0  0  0  0  0  0  0  0  0  0  0  0
   46.5240   26.9970  -14.1790 F   0  0  0  0  0  0  0  0  0  0  0  0
   43.0380   26.7880  -14.6080 C   0  0  0  0  0  0  0  0  0  0  0  0
   40.0760   27.3170  -14.7370 O   0  0  0  0  0  0  0  0  0  0  0  0
   38.9140   27.9140  -15.1550 C   0  0  0  0  0  0  0  0  0  0  0  0
   38.2450   28.7150  -14.2270 C   0  0  0  0  0  0  0  0  0  0  0  0
   37.0560   29.3510  -14.5870 C   0  0  0  0  0  0  0  0  0  0  0  0
   36.5350   29.1880  -15.8740 C   0  0  0  0  0  0  0  0  0  0  0  0
   37.2050   28.3890  -16.7970 C   0  0  0  0  0  0  0  0  0  0  0  0
   36.6400   28.2720  -18.0360 O   0  0  0  0  0  0  0  0  0  0  0  0
   38.3960   27.7520  -16.4360 C   0  0  0  0  0  0  0  0  0  0  0  0
   41.0710   24.5380  -17.6580 H   0  0  0  0  0  0  0  0  0  0  0  0
   41.4046   23.8786  -15.2931 H   0  0  0  0  0  0  0  0  0  0  0  0
   43.4942   22.9423  -14.3323 H   0  0  0  0  0  0  0  0  0  0  0  0
   45.5012   23.1934  -13.4662 H   0  0  0  0  0  0  0  0  0  0  0  0
   44.9252   28.2215  -13.8952 H   0  0  0  0  0  0  0  0  0  0  0  0
   42.9089   27.8773  -14.6896 H   0  0  0  0  0  0  0  0  0  0  0  0
   38.6544   28.8444  -13.2143 H   0  0  0  0  0  0  0  0  0  0  0  0
   36.5278   29.9817  -13.8567 H   0  0  0  0  0  0  0  0  0  0  0  0
   35.5979   29.6898  -16.1570 H   0  0  0  0  0  0  0  0  0  0  0  0
   35.7850   27.9010  -18.1280 H   0  0  0  0  0  0  0  0  0  0  0  0
  1  2  2  0
  2  3  1  0
  3  4  1  0
  3  5  2  0
  5  6  1  0
  6  7  2  0
  7  8  1  0
  8  9  2  0
  9 10  1  0
 10 11  1  0
 10 12  1  0
  9 13  1  0
 13 14  1  0
 14 15  1  0
 14 16  1  0
 13 17  2  0
  5 18  1  0
 18 19  1  0
 19 20  2  0
 20 21  1  0
 21 22  2  0
 22 23  1  0
 23 24  1  0
 23 25  2  0
 25  2  1  0
 17  6  1  0
 25 19  1  0
  4 26  1  0
  7 27  1  0
  8 28  1  0
 10 29  1  0
 14 30  1  0
 17 31  1  0
 20 32  1  0
 21 33  1  0
 22 34  1  0
 24 35  1  0
M  END
>  <meeko>  (4) 
{"is_sidechain": [false], "free_energy": -7.13, "intermolecular_energy": -8.691, "internal_energy": 0.342}

$$$$
cand_008_out
     RDKit          3D

 35 37  0  0  0  0  0  0  0  0999 V2000
   41.5100   27.2910  -11.3520 O   0  0  0  0  0  0  0  0  0  0  0  0
   41.6040   26.9560  -12.5300 C   0  0  0  0  0  0  0  0  0  0  0  0
   40.4690   27.1510  -13.4610 C   0  0  0  0  0  0  0  0  0  0  0  0
   39.3140   27.7070  -12.9380 O   0  0  0  0  0  0  0  0  0  0  0  0
   40.6130   26.7680  -14.7430 C   0  0  0  0  0  0  0  0  0  0  0  0
   39.5440   26.9030  -15.7540 C   0  0  0  0  0  0  0  0  0  0  0  0
   39.4580   26.0450  -16.8550 C   0  0  0  0  0  0  0  0  0  0  0  0
   38.4260   26.1760  -17.7880 C   0  0  0  0  0  0  0  0  0  0  0  0
   37.4460   27.1710  -17.6420 C   0  0  0  0  0  0  0  0  0  0  0  0
   36.3390   27.2860  -18.6660 C   0  0  0  0  0  0  0  0  0  0  0  0
   36.6820   26.7810  -19.8860 F   0  0  0  0  0  0  0  0  0  0  0  0
   35.9860   28.5810  -18.8980 F   0  0  0  0  0  0  0  0  0  0  0  0
   37.5040   28.0320  -16.5230 C   0  0  0  0  0  0  0  0  0  0  0  0
   36.4730   29.1180  -16.3140 C   0  0  0  0  0  0  0  0  0  0  0  0
   36.3530   29.4650  -15.0010 F   0  0  0  0  0  0  0  0  0  0  0  0
   36.7770   30.2780  -16.9650 F   0  0  0  0  0  0  0  0  0  0  0  0
   38.5570   27.8890  -15.5980 C   0  0  0  0  0  0  0  0  0  0  0  0
   41.7670   26.1840  -15.2510 O   0  0  0  0  0  0  0  0  0  0  0  0
   42.8390   25.9960  -14.4160 C   0  0  0  0  0  0  0  0  0  0  0  0
   43.9810   25.4170  -14.9720 C   0  0  0  0  0  0  0  0  0  0  0  0
   45.1070   25.1980  -14.1760 C   0  0  0  0  0  0  0  0  0  0  0  0
   45.0910   25.5560  -12.8250 C   0  0  0  0  0  0  0  0  0  0  0  0
   43.9510   26.1330  -12.2740 C   0  0  0  0  0  0  0  0  0  0  0  0
   44.0030   26.4580  -10.9470 O   0  0  0  0  0  0  0  0  0  0  0  0
   42.8230   26.3540  -13.0710 C   0  0  0  0  0  0  0  0  0  0  0  0
   38.5230   27.2080  -12.9160 H   0  0  0  0  0  0  0  0  0  0  0  0
   40.2130   25.2562  -16.9884 H   0  0  0  0  0  0  0  0  0  0  0  0
   38.3808   25.4911  -18.6476 H   0  0  0  0  0  0  0  0  0  0  0  0
   35.5125   26.7103  -18.2238 H   0  0  0  0  0  0  0  0  0  0  0  0
   35.5450   28.6790  -16.7091 H   0  0  0  0  0  0  0  0  0  0  0  0
   38.6070   28.5663  -14.7327 H   0  0  0  0  0  0  0  0  0  0  0  0
   43.9938   25.1339  -16.0349 H   0  0  0  0  0  0  0  0  0  0  0  0
   46.0082   24.7430  -14.6128 H   0  0  0  0  0  0  0  0  0  0  0  0
   45.9782   25.3819  -12.1984 H   0  0  0  0  0  0  0  0  0  0  0  0
   44.5960   27.1200  -10.6510 H   0  0  0  0  0  0  0  0  0  0  0  0
  1  2  2  0
  2  3  1  0
  3  4  1  0
  3  5  2  0
  5  6  1  0
  6  7  2  0
  7  8  1  0
  8  9  2  0
  9 10  1  0
 10 11  1  0
 10 12  1  0
  9 13  1  0
 13 14  1  0
 14 15  1  0
 14 16  1  0
 13 17  2  0
  5 18  1  0
 18 19  1  0
 19 20  2  0
 20 21  1  0
 21 22  2  0
 22 23  1  0
 23 24  1  0
 23 25  2  0
 25  2  1  0
 17  6  1  0
 25 19  1  0
  4 26  1  0
  7 27  1  0
  8 28  1  0
 10 29  1  0
 14 30  1  0
 17 31  1  0
 20 32  1  0
 21 33  1  0
 22 34  1  0
 24 35  1  0
M  END
>  <meeko>  (5) 
{"is_sidechain": [false], "free_energy": -6.363, "intermolecular_energy": -7.795, "internal_energy": 0.392}

$$$$
cand_008_out
     RDKit          3D

 35 37  0  0  0  0  0  0  0  0999 V2000
   37.6920   25.9020  -19.1410 O   0  0  0  0  0  0  0  0  0  0  0  0
   37.6740   26.6910  -18.1990 C   0  0  0  0  0  0  0  0  0  0  0  0
   38.6400   26.5520  -17.0840 C   0  0  0  0  0  0  0  0  0  0  0  0
   39.5340   25.4980  -17.1530 O   0  0  0  0  0  0  0  0  0  0  0  0
   38.5840   27.4360  -16.0710 C   0  0  0  0  0  0  0  0  0  0  0  0
   39.4880   27.3860  -14.9020 C   0  0  0  0  0  0  0  0  0  0  0  0
   39.1470   27.9770  -13.6810 C   0  0  0  0  0  0  0  0  0  0  0  0
   40.0060   27.8990  -12.5830 C   0  0  0  0  0  0  0  0  0  0  0  0
   41.2330   27.2210  -12.6740 C   0  0  0  0  0  0  0  0  0  0  0  0
   42.1400   27.1500  -11.4650 C   0  0  0  0  0  0  0  0  0  0  0  0
   43.2830   26.4430  -11.6940 F   0  0  0  0  0  0  0  0  0  0  0  0
   41.5400   26.5340  -10.4080 F   0  0  0  0  0  0  0  0  0  0  0  0
   41.5820   26.5980  -13.8930 C   0  0  0  0  0  0  0  0  0  0  0  0
   42.8890   25.8520  -14.0460 C   0  0  0  0  0  0  0  0  0  0  0  0
   42.7410   24.7030  -14.7670 F   0  0  0  0  0  0  0  0  0  0  0  0
   43.8420   26.5690  -14.7070 F   0  0  0  0  0  0  0  0  0  0  0  0
   40.7070   26.6950  -14.9920 C   0  0  0  0  0  0  0  0  0  0  0  0
   37.6630   28.4740  -15.9970 O   0  0  0  0  0  0  0  0  0  0  0  0
   36.7610   28.6330  -17.0190 C   0  0  0  0  0  0  0  0  0  0  0  0
   35.8620   29.6960  -16.9090 C   0  0  0  0  0  0  0  0  0  0  0  0
   34.9170   29.9130  -17.9130 C   0  0  0  0  0  0  0  0  0  0  0  0
   34.8700   29.0700  -19.0260 C   0  0  0  0  0  0  0  0  0  0  0  0
   35.7670   28.0110  -19.1320 C   0  0  0  0  0  0  0  0  0  0  0  0
   35.6660   27.2240  -20.2460 O   0  0  0  0  0  0  0  0  0  0  0  0
   36.7140   27.7930  -18.1270 C   0  0  0  0  0  0  0  0  0  0  0  0
   40.3400   25.5370  -16.6780 H   0  0  0  0  0  0  0  0  0  0  0  0
   38.1897   28.5101  -13.5845 H   0  0  0  0  0  0  0  0  0  0  0  0
   39.7181   28.3748  -11.6340 H   0  0  0  0  0  0  0  0  0  0  0  0
   42.3697   28.2034  -11.2469 H   0  0  0  0  0  0  0  0  0  0  0  0
   43.1997   25.6510  -13.0101 H   0  0  0  0  0  0  0  0  0  0  0  0
   40.9850   26.2182  -15.9435 H   0  0  0  0  0  0  0  0  0  0  0  0
   35.8985   30.3606  -16.0333 H   0  0  0  0  0  0  0  0  0  0  0  0
   34.2078   30.7495  -17.8277 H   0  0  0  0  0  0  0  0  0  0  0  0
   34.1255   29.2428  -19.8171 H   0  0  0  0  0  0  0  0  0  0  0  0
   36.1830   27.4160  -21.0030 H   0  0  0  0  0  0  0  0  0  0  0  0
  1  2  2  0
  2  3  1  0
  3  4  1  0
  3  5  2  0
  5  6  1  0
  6  7  2  0
  7  8  1  0
  8  9  2  0
  9 10  1  0
 10 11  1  0
 10 12  1  0
  9 13  1  0
 13 14  1  0
 14 15  1  0
 14 16  1  0
 13 17  2  0
  5 18  1  0
 18 19  1  0
 19 20  2  0
 20 21  1  0
 21 22  2  0
 22 23  1  0
 23 24  1  0
 23 25  2  0
 25  2  1  0
 17  6  1  0
 25 19  1  0
  4 26  1  0
  7 27  1  0
  8 28  1  0
 10 29  1  0
 14 30  1  0
 17 31  1  0
 20 32  1  0
 21 33  1  0
 22 34  1  0
 24 35  1  0
M  END
>  <meeko>  (6) 
{"is_sidechain": [false], "free_energy": -5.649, "intermolecular_energy": -7.16, "internal_energy": 0.638}

$$$$
cand_008_out
     RDKit          3D

 35 37  0  0  0  0  0  0  0  0999 V2000
   38.8820   26.4310  -18.4950 O   0  0  0  0  0  0  0  0  0  0  0  0
   39.0340   26.8970  -17.3680 C   0  0  0  0  0  0  0  0  0  0  0  0
   40.2350   26.5560  -16.5700 C   0  0  0  0  0  0  0  0  0  0  0  0
   41.1480   25.6900  -17.1450 O   0  0  0  0  0  0  0  0  0  0  0  0
   40.3620   27.0860  -15.3400 C   0  0  0  0  0  0  0  0  0  0  0  0
   41.5100   26.8060  -14.4520 C   0  0  0  0  0  0  0  0  0  0  0  0
   41.5310   27.2300  -13.1190 C   0  0  0  0  0  0  0  0  0  0  0  0
   42.6170   26.9360  -12.2900 C   0  0  0  0  0  0  0  0  0  0  0  0
   43.7130   26.2020  -12.7720 C   0  0  0  0  0  0  0  0  0  0  0  0
   44.8710   25.8950  -11.8490 C   0  0  0  0  0  0  0  0  0  0  0  0
   46.0130   26.5620  -12.1820 F   0  0  0  0  0  0  0  0  0  0  0  0
   45.2060   24.5740  -11.8680 F   0  0  0  0  0  0  0  0  0  0  0  0
   43.6970   25.7450  -14.1090 C   0  0  0  0  0  0  0  0  0  0  0  0
   44.8480   24.9470  -14.6790 C   0  0  0  0  0  0  0  0  0  0  0  0
   46.0310   25.6190  -14.5910 F   0  0  0  0  0  0  0  0  0  0  0  0
   45.0570   23.7670  -14.0290 F   0  0  0  0  0  0  0  0  0  0  0  0
   42.5970   26.0590  -14.9310 C   0  0  0  0  0  0  0  0  0  0  0  0
   39.4250   27.9330  -14.7600 O   0  0  0  0  0  0  0  0  0  0  0  0
   38.3060   28.2730  -15.4770 C   0  0  0  0  0  0  0  0  0  0  0  0
   37.3970   29.1350  -14.8610 C   0  0  0  0  0  0  0  0  0  0  0  0
   36.2370   29.5200  -15.5350 C   0  0  0  0  0  0  0  0  0  0  0  0
   35.9850   29.0440  -16.8250 C   0  0  0  0  0  0  0  0  0  0  0  0
   36.8930   28.1850  -17.4370 C   0  0  0  0  0  0  0  0  0  0  0  0
   36.5850   27.7570  -18.6980 O   0  0  0  0  0  0  0  0  0  0  0  0
   38.0550   27.7990  -16.7620 C   0  0  0  0  0  0  0  0  0  0  0  0
   40.8820   24.8290  -17.3980 H   0  0  0  0  0  0  0  0  0  0  0  0
   40.6815   27.8024  -12.7181 H   0  0  0  0  0  0  0  0  0  0  0  0
   42.6133   27.2840  -11.2465 H   0  0  0  0  0  0  0  0  0  0  0  0
   44.5092   26.2108  -10.8594 H   0  0  0  0  0  0  0  0  0  0  0  0
   44.5524   24.7706  -15.7237 H   0  0  0  0  0  0  0  0  0  0  0  0
   42.5900   25.7100  -15.9741 H   0  0  0  0  0  0  0  0  0  0  0  0
   37.5946   29.5102  -13.8460 H   0  0  0  0  0  0  0  0  0  0  0  0
   35.5200   30.1990  -15.0504 H   0  0  0  0  0  0  0  0  0  0  0  0
   35.0705   29.3479  -17.3555 H   0  0  0  0  0  0  0  0  0  0  0  0
   35.9130   27.1160  -18.8240 H   0  0  0  0  0  0  0  0  0  0  0  0
  1  2  2  0
  2  3  1  0
  3  4  1  0
  3  5  2  0
  5  6  1  0
  6  7  2  0
  7  8  1  0
  8  9  2  0
  9 10  1  0
 10 11  1  0
 10 12  1  0
  9 13  1  0
 13 14  1  0
 14 15  1  0
 14 16  1  0
 13 17  2  0
  5 18  1  0
 18 19  1  0
 19 20  2  0
 20 21  1  0
 21 22  2  0
 22 23  1  0
 23 24  1  0
 23 25  2  0
 25  2  1  0
 17  6  1  0
 25 19  1  0
  4 26  1  0
  7 27  1  0
  8 28  1  0
 10 29  1  0
 14 30  1  0
 17 31  1  0
 20 32  1  0
 21 33  1  0
 22 34  1  0
 24 35  1  0
M  END
>  <meeko>  (7) 
{"is_sidechain": [false], "free_energy": -5.429, "intermolecular_energy": -7.195, "internal_energy": 0.945}

$$$$
