cand_019_out
     RDKit          3D

 35 37  0  0  0  0  0  0  0  0999 V2000
   38.7360   26.6840  -18.6090 O   0  0  0  0  0  0  0  0  0  0  0  0
   39.0710   26.9190  -17.4500 C   0  0  0  0  0  0  0  0  0  0  0  0
   40.3160   26.3400  -16.8950 C   0  0  0  0  0  0  0  0  0  0  0  0
   41.0570   25.5240  -17.7310 O   0  0  0  0  0  0  0  0  0  0  0  0
   40.6440   26.6220  -15.6210 C   0  0  0  0  0  0  0  0  0  0  0  0
   41.8550   26.0890  -14.9590 C   0  0  0  0  0  0  0  0  0  0  0  0
   42.3080   24.7870  -15.1890 C   0  0  0  0  0  0  0  0  0  0  0  0
   43.4680   24.3130  -14.5700 C   0  0  0  0  0  0  0  0  0  0  0  0
   44.2070   25.1320  -13.7050 C   0  0  0  0  0  0  0  0  0  0  0  0
   45.4580   24.5920  -13.0600 C   0  0  0  0  0  0  0  0  0  0  0  0
   46.4490   24.3560  -13.9640 F   0  0  0  0  0  0  0  0  0  0  0  0
   43.7800   26.4590  -13.4820 C   0  0  0  0  0  0  0  0  0  0  0  0
   44.5530   27.3920  -12.5770 C   0  0  0  0  0  0  0  0  0  0  0  0
   45.9000   27.2880  -12.7520 F   0  0  0  0  0  0  0  0  0  0  0  0
   44.2650   28.7090  -12.7940 F   0  0  0  0  0  0  0  0  0  0  0  0
   42.6060   26.9170  -14.1100 C   0  0  0  0  0  0  0  0  0  0  0  0
   39.8760   27.4210  -14.7820 O   0  0  0  0  0  0  0  0  0  0  0  0
   38.7210   27.9770  -15.2690 C   0  0  0  0  0  0  0  0  0  0  0  0
   37.9870   28.7800  -14.3950 C   0  0  0  0  0  0  0  0  0  0  0  0
   36.8000   29.3760  -14.8280 C   0  0  0  0  0  0  0  0  0  0  0  0
   36.3480   29.1690  -16.1330 C   0  0  0  0  0  0  0  0  0  0  0  0
   37.0820   28.3660  -17.0020 C   0  0  0  0  0  0  0  0  0  0  0  0
   36.5810   28.2050  -18.2650 O   0  0  0  0  0  0  0  0  0  0  0  0
   38.2690   27.7710  -16.5690 C   0  0  0  0  0  0  0  0  0  0  0  0
   40.9630   25.5970  -18.6610 H   0  0  0  0  0  0  0  0  0  0  0  0
   41.7447   24.1273  -15.8654 H   0  0  0  0  0  0  0  0  0  0  0  0
   43.8054   23.2842  -14.7641 H   0  0  0  0  0  0  0  0  0  0  0  0
   45.8195   25.3242  -12.3229 H   0  0  0  0  0  0  0  0  0  0  0  0
   45.2028   23.6333  -12.5849 H   0  0  0  0  0  0  0  0  0  0  0  0
   44.2487   27.0825  -11.5663 H   0  0  0  0  0  0  0  0  0  0  0  0
   42.2691   27.9487  -13.9310 H   0  0  0  0  0  0  0  0  0  0  0  0
   38.3424   28.9434  -13.3669 H   0  0  0  0  0  0  0  0  0  0  0  0
   36.2206   30.0092  -14.1400 H   0  0  0  0  0  0  0  0  0  0  0  0
   35.4139   29.6394  -16.4738 H   0  0  0  0  0  0  0  0  0  0  0  0
   35.8750   27.6090  -18.4170 H   0  0  0  0  0  0  0  0  0  0  0  0
  1  2  2  0
  2  3  1  0
  3  4  1  0
  3  5  2  0
  5  6  1  0
  6  7  2  0
  7  8  1  0
  8  9  2  0
  9 10  1  0
 10 11  1  0
  9 12  1  0
 12 13  1  0
 13 14  1  0
 13 15  1  0
 12 16  2  0
  5 17  1  0
 17 18  1  0
 18 19  2  0
 19 20  1  0
 20 21  2  0
 21 22  1  0
 22 23  1  0
 22 24  2  0
 24  2  1  0
 16  6  1  0
 24 18  1  0
  4 25  1  0
  7 26  1  0
  8 27  1  0
 10 28  1  0
 10 29  1  0
 13 30  1  0
 16 31  1  0
 19 32  1  0
 20 33  1  0
 21 34  1  0
 23 35  1  0
M  END
>  <meeko>  (1) 
{"is_sidechain": [false], "free_energy": -7.772, "intermolecular_energy": -9.59, "internal_energy": 0.135}

$$$$
cand_019_out
     RDKit          3D

 35 37  0  0  0  0  0  0  0  0999 V2000
   38.3290   29.1210  -13.1870 O   0  0  0  0  0  0  0  0  0  0  0  0
   38.9030   28.3970  -13.9970 C   0  0  0  0  0  0  0  0  0  0  0  0
   40.1720   27.7220  -13.6360 C   0  0  0  0  0  0  0  0  0  0  0  0
   40.6720   27.9610  -12.3690 O   0  0  0  0  0  0  0  0  0  0  0  0
   40.7670   26.9390  -14.5530 C   0  0  0  0  0  0  0  0  0  0  0  0
   42.0410   26.2280  -14.3080 C   0  0  0  0  0  0  0  0  0  0  0  0
   42.2900   24.9590  -14.8390 C   0  0  0  0  0  0  0  0  0  0  0  0
   43.5100   24.3150  -14.6130 C   0  0  0  0  0  0  0  0  0  0  0  0
   44.5150   24.9270  -13.8500 C   0  0  0  0  0  0  0  0  0  0  0  0
   45.8220   24.2080  -13.6320 C   0  0  0  0  0  0  0  0  0  0  0  0
   46.7500   24.5180  -14.5810 F   0  0  0  0  0  0  0  0  0  0  0  0
   44.2920   26.2200  -13.3290 C   0  0  0  0  0  0  0  0  0  0  0  0
   45.3510   26.9350  -12.5200 C   0  0  0  0  0  0  0  0  0  0  0  0
   46.5710   26.9120  -13.1260 F   0  0  0  0  0  0  0  0  0  0  0  0
   45.0740   28.2570  -12.3240 F   0  0  0  0  0  0  0  0  0  0  0  0
   43.0550   26.8500  -13.5630 C   0  0  0  0  0  0  0  0  0  0  0  0
   40.2700   26.7290  -15.8340 O   0  0  0  0  0  0  0  0  0  0  0  0
   39.0940   27.3350  -16.1960 C   0  0  0  0  0  0  0  0  0  0  0  0
   38.6250   27.0880  -17.4880 C   0  0  0  0  0  0  0  0  0  0  0  0
   37.4340   27.6750  -17.9200 C   0  0  0  0  0  0  0  0  0  0  0  0
   36.7120   28.5080  -17.0630 C   0  0  0  0  0  0  0  0  0  0  0  0
   37.1820   28.7520  -15.7750 C   0  0  0  0  0  0  0  0  0  0  0  0
   36.4260   29.5770  -14.9880 O   0  0  0  0  0  0  0  0  0  0  0  0
   38.3730   28.1650  -15.3430 C   0  0  0  0  0  0  0  0  0  0  0  0
   40.1220   28.3430  -11.7130 H   0  0  0  0  0  0  0  0  0  0  0  0
   41.5164   24.4611  -15.4421 H   0  0  0  0  0  0  0  0  0  0  0  0
   43.6839   23.3158  -15.0389 H   0  0  0  0  0  0  0  0  0  0  0  0
   46.2189   24.4880  -12.6450 H   0  0  0  0  0  0  0  0  0  0  0  0
   45.6252   23.1276  -13.6956 H   0  0  0  0  0  0  0  0  0  0  0  0
   45.3598   26.3883  -11.5655 H   0  0  0  0  0  0  0  0  0  0  0  0
   42.8787   27.8549  -13.1517 H   0  0  0  0  0  0  0  0  0  0  0  0
   39.1929   26.4321  -18.1642 H   0  0  0  0  0  0  0  0  0  0  0  0
   37.0638   27.4808  -18.9375 H   0  0  0  0  0  0  0  0  0  0  0  0
   35.7741   28.9704  -17.4044 H   0  0  0  0  0  0  0  0  0  0  0  0
   36.6310   29.6770  -14.0800 H   0  0  0  0  0  0  0  0  0  0  0  0
  1  2  2  0
  2  3  1  0
  3  4  1  0
  3  5  2  0
  5  6  1  0
  6  7  2  0
  7  8  1  0
  8  9  2  0
  9 10  1  0
 10 11  1  0
  9 12  1  0
 12 13  1  0
 13 14  1  0
 13 15  1  0
 12 16  2  0
  5 17  1  0
 17 18  1  0
 18 19  2  0
 19 20  1  0
 20 21  2  0
 21 22  1  0
 22 23  1  0
 22 24  2  0
 24  2  1  0
 16  6  1  0
 24 18  1  0
  4 25  1  0
  7 26  1  0
  8 27  1  0
 10 28  1  0
 10 29  1  0
 13 30  1  0
 16 31  1  0
 19 32  1  0
 20 33  1  0
 21 34  1  0
 23 35  1  0
M  END
>  <meeko>  (2) 
{"is_sidechain": [false], "free_energy": -7.467, "intermolecular_energy": -9.178, "internal_energy": 0.1}

$$$$
cand_019_out
     RDKit          3D

 35 37  0  0  0  0  0  0  0  0999 V2000
   41.4020   27.3620  -11.0630 O   0  0  0  0  0  0  0  0  0  0  0  0
   41.2800   27.2130  -12.2770 C   0  0  0  0  0  0  0  0  0  0  0  0
   40.0750   27.7110  -12.9790 C   0  0  0  0  0  0  0  0  0  0  0  0
   39.1070   28.3260  -12.2060 O   0  0  0  0  0  0  0  0  0  0  0  0
   39.9810   27.5250  -14.3080 C   0  0  0  0  0  0  0  0  0  0  0  0
   38.8190   27.9690  -15.1090 C   0  0  0  0  0  0  0  0  0  0  0  0
   37.9440   28.9590  -14.6510 C   0  0  0  0  0  0  0  0  0  0  0  0
   36.8660   29.3790  -15.4350 C   0  0  0  0  0  0  0  0  0  0  0  0
   36.6360   28.8200  -16.7000 C   0  0  0  0  0  0  0  0  0  0  0  0
   35.4690   29.3010  -17.5240 C   0  0  0  0  0  0  0  0  0  0  0  0
   35.7170   30.4960  -18.1290 F   0  0  0  0  0  0  0  0  0  0  0  0
   37.5250   27.8390  -17.1900 C   0  0  0  0  0  0  0  0  0  0  0  0
   37.3380   27.2200  -18.5580 C   0  0  0  0  0  0  0  0  0  0  0  0
   37.5620   25.8760  -18.5560 F   0  0  0  0  0  0  0  0  0  0  0  0
   36.0710   27.3700  -19.0450 F   0  0  0  0  0  0  0  0  0  0  0  0
   38.6030   27.4240  -16.3840 C   0  0  0  0  0  0  0  0  0  0  0  0
   40.9480   26.8800  -15.0700 O   0  0  0  0  0  0  0  0  0  0  0  0
   42.0790   26.4130  -14.4500 C   0  0  0  0  0  0  0  0  0  0  0  0
   43.0280   25.7820  -15.2550 C   0  0  0  0  0  0  0  0  0  0  0  0
   44.2020   25.2820  -14.6870 C   0  0  0  0  0  0  0  0  0  0  0  0
   44.4270   25.4140  -13.3150 C   0  0  0  0  0  0  0  0  0  0  0  0
   43.4780   26.0450  -12.5140 C   0  0  0  0  0  0  0  0  0  0  0  0
   43.7620   26.1390  -11.1790 O   0  0  0  0  0  0  0  0  0  0  0  0
   42.3040   26.5440  -13.0830 C   0  0  0  0  0  0  0  0  0  0  0  0
   39.3530   28.7940  -11.4310 H   0  0  0  0  0  0  0  0  0  0  0  0
   38.1061   29.4125  -13.6620 H   0  0  0  0  0  0  0  0  0  0  0  0
   36.1892   30.1583  -15.0546 H   0  0  0  0  0  0  0  0  0  0  0  0
   35.2511   28.5514  -18.2990 H   0  0  0  0  0  0  0  0  0  0  0  0
   34.6144   29.4400  -16.8455 H   0  0  0  0  0  0  0  0  0  0  0  0
   38.0681   27.7534  -19.1844 H   0  0  0  0  0  0  0  0  0  0  0  0
   39.2918   26.6546  -16.7629 H   0  0  0  0  0  0  0  0  0  0  0  0
   42.8518   25.6784  -16.3358 H   0  0  0  0  0  0  0  0  0  0  0  0
   44.9502   24.7837  -15.3210 H   0  0  0  0  0  0  0  0  0  0  0  0
   45.3517   25.0205  -12.8678 H   0  0  0  0  0  0  0  0  0  0  0  0
   44.6490   26.2370  -10.8940 H   0  0  0  0  0  0  0  0  0  0  0  0
  1  2  2  0
  2  3  1  0
  3  4  1  0
  3  5  2  0
  5  6  1  0
  6  7  2  0
  7  8  1  0
  8  9  2  0
  9 10  1  0
 10 11  1  0
  9 12  1  0
 12 13  1  0
 13 14  1  0
 13 15  1  0
 12 16  2  0
  5 17  1  0
 17 18  1  0
 18 19  2  0
 19 20  1  0
 20 21  2  0
 21 22  1  0
 22 23  1  0
 22 24  2  0
 24  2  1  0
 16  6  1  0
 24 18  1  0
  4 25  1  0
  7 26  1  0
  8 27  1  0
 10 28  1  0
 10 29  1  0
 13 30  1  0
 16 31  1  0
 19 32  1  0
 20 33  1  0
 21 34  1  0
 23 35  1  0
M  END
>  <meeko>  (3) 
{"is_sidechain": [false], "free_energy": -7.026, "intermolecular_energy": -9.122, "internal_energy": 0.589}

$$$$
cand_019_out
     RDKit          3D

 35 37  0  0  0  0  0  0  0  0999 V2000
   41.4770   27.2830  -11.4030 O   0  0  0  0  0  0  0  0  0  0  0  0
   41.5890   26.9480  -12.5800 C   0  0  0  0  0  0  0  0  0  0  0  0
   40.4780   27.1710  -13.5340 C   0  0  0  0  0  0  0  0  0  0  0  0
   39.3260   27.7490  -13.0340 O   0  0  0  0  0  0  0  0  0  0  0  0
   40.6430   26.7880  -14.8130 C   0  0  0  0  0  0  0  0  0  0  0  0
   39.5990   26.9490  -15.8490 C   0  0  0  0  0  0  0  0  0  0  0  0
   39.5550   26.1320  -16.9830 C   0  0  0  0  0  0  0  0  0  0  0  0
   38.5450   26.2870  -17.9370 C   0  0  0  0  0  0  0  0  0  0  0  0
   37.5500   27.2630  -17.7800 C   0  0  0  0  0  0  0  0  0  0  0  0
   36.4710   27.3980  -18.8240 C   0  0  0  0  0  0  0  0  0  0  0  0
   36.6520   26.5460  -19.8710 F   0  0  0  0  0  0  0  0  0  0  0  0
   37.5640   28.0780  -16.6270 C   0  0  0  0  0  0  0  0  0  0  0  0
   36.5020   29.1300  -16.3960 C   0  0  0  0  0  0  0  0  0  0  0  0
   36.4180   29.5060  -15.0890 F   0  0  0  0  0  0  0  0  0  0  0  0
   36.7330   30.2860  -17.0870 F   0  0  0  0  0  0  0  0  0  0  0  0
   38.5920   27.9110  -15.6800 C   0  0  0  0  0  0  0  0  0  0  0  0
   41.7960   26.1820  -15.2990 O   0  0  0  0  0  0  0  0  0  0  0  0
   42.8450   25.9690  -14.4410 C   0  0  0  0  0  0  0  0  0  0  0  0
   43.9870   25.3680  -14.9730 C   0  0  0  0  0  0  0  0  0  0  0  0
   45.0910   25.1210  -14.1530 C   0  0  0  0  0  0  0  0  0  0  0  0
   45.0520   25.4760  -12.8030 C   0  0  0  0  0  0  0  0  0  0  0  0
   43.9120   26.0750  -12.2750 C   0  0  0  0  0  0  0  0  0  0  0  0
   43.9420   26.3960  -10.9450 O   0  0  0  0  0  0  0  0  0  0  0  0
   42.8080   26.3210  -13.0950 C   0  0  0  0  0  0  0  0  0  0  0  0
   38.8530   27.3280  -12.3420 H   0  0  0  0  0  0  0  0  0  0  0  0
   40.3239   25.3585  -17.1260 H   0  0  0  0  0  0  0  0  0  0  0  0
   38.5304   25.6348  -18.8227 H   0  0  0  0  0  0  0  0  0  0  0  0
   35.4987   27.1823  -18.3570 H   0  0  0  0  0  0  0  0  0  0  0  0
   36.5107   28.4248  -19.2165 H   0  0  0  0  0  0  0  0  0  0  0  0
   35.5774   28.6430  -16.7395 H   0  0  0  0  0  0  0  0  0  0  0  0
   38.6061   28.5507  -14.7852 H   0  0  0  0  0  0  0  0  0  0  0  0
   44.0178   25.0891  -16.0366 H   0  0  0  0  0  0  0  0  0  0  0  0
   45.9912   24.6467  -14.5710 H   0  0  0  0  0  0  0  0  0  0  0  0
   45.9214   25.2824  -12.1575 H   0  0  0  0  0  0  0  0  0  0  0  0
   44.3770   25.8310  -10.3370 H   0  0  0  0  0  0  0  0  0  0  0  0
  1  2  2  0
  2  3  1  0
  3  4  1  0
  3  5  2  0
  5  6  1  0
  6  7  2  0
  7  8  1  0
  8  9  2  0
  9 10  1  0
 10 11  1  0
  9 12  1  0
 12 13  1  0
 13 14  1  0
 13 15  1  0
 12 16  2  0
  5 17  1  0
 17 18  1  0
 18 19  2  0
 19 20  1  0
 20 21  2  0
 21 22  1  0
 22 23  1  0
 22 24  2  0
 24  2  1  0
 16  6  1  0
 24 18  1  0
  4 25  1  0
  7 26  1  0
  8 27  1  0
 10 28  1  0
 10 29  1  0
 13 30  1  0
 16 31  1  0
 19 32  1  0
 20 33  1  0
 21 34  1  0
 23 35  1  0
M  END
>  <meeko>  (4) 
{"is_sidechain": [false], "free_energy": -6.732, "intermolecular_energy": -8.211, "internal_energy": 0.039}

$$$$
cand_019_out
     RDKit          3D

 35 37  0  0  0  0  0  0  0  0999 V2000
   37.1170   29.6480  -14.3790 O   0  0  0  0  0  0  0  0  0  0  0  0
   37.9380   28.8250  -14.7800 C   0  0  0  0  0  0  0  0  0  0  0  0
   39.1050   28.4590  -13.9440 C   0  0  0  0  0  0  0  0  0  0  0  0
   39.2250   29.0920  -12.7200 O   0  0  0  0  0  0  0  0  0  0  0  0
   39.9790   27.5550  -14.4220 C   0  0  0  0  0  0  0  0  0  0  0  0
   41.1850   27.1230  -13.6820 C   0  0  0  0  0  0  0  0  0  0  0  0
   41.2510   27.1790  -12.2860 C   0  0  0  0  0  0  0  0  0  0  0  0
   42.3920   26.7440  -11.6060 C   0  0  0  0  0  0  0  0  0  0  0  0
   43.4970   26.2390  -12.3060 C   0  0  0  0  0  0  0  0  0  0  0  0
   44.7100   25.7710  -11.5410 C   0  0  0  0  0  0  0  0  0  0  0  0
   44.8370   24.4140  -11.5490 F   0  0  0  0  0  0  0  0  0  0  0  0
   43.4370   26.1490  -13.7130 C   0  0  0  0  0  0  0  0  0  0  0  0
   44.5920   25.5900  -14.5160 C   0  0  0  0  0  0  0  0  0  0  0  0
   45.7770   26.1840  -14.2040 F   0  0  0  0  0  0  0  0  0  0  0  0
   44.7940   24.2560  -14.3050 F   0  0  0  0  0  0  0  0  0  0  0  0
   42.2820   26.5970  -14.3810 C   0  0  0  0  0  0  0  0  0  0  0  0
   39.8620   26.9450  -15.6660 O   0  0  0  0  0  0  0  0  0  0  0  0
   38.7890   27.2590  -16.4600 C   0  0  0  0  0  0  0  0  0  0  0  0
   38.7050   26.6160  -17.6960 C   0  0  0  0  0  0  0  0  0  0  0  0
   37.6370   26.8920  -18.5530 C   0  0  0  0  0  0  0  0  0  0  0  0
   36.6550   27.8100  -18.1760 C   0  0  0  0  0  0  0  0  0  0  0  0
   36.7410   28.4500  -16.9420 C   0  0  0  0  0  0  0  0  0  0  0  0
   35.7450   29.3360  -16.6360 O   0  0  0  0  0  0  0  0  0  0  0  0
   37.8090   28.1740  -16.0850 C   0  0  0  0  0  0  0  0  0  0  0  0
   38.4580   29.3090  -12.2270 H   0  0  0  0  0  0  0  0  0  0  0  0
   40.3949   27.5700  -11.7166 H   0  0  0  0  0  0  0  0  0  0  0  0
   42.4235   26.7985  -10.5078 H   0  0  0  0  0  0  0  0  0  0  0  0
   45.6079   26.2126  -11.9978 H   0  0  0  0  0  0  0  0  0  0  0  0
   44.5913   26.0908  -10.4952 H   0  0  0  0  0  0  0  0  0  0  0  0
   44.3010   25.7855  -15.5587 H   0  0  0  0  0  0  0  0  0  0  0  0
   42.2383   26.5332  -15.4783 H   0  0  0  0  0  0  0  0  0  0  0  0
   39.4785   25.8932  -17.9947 H   0  0  0  0  0  0  0  0  0  0  0  0
   37.5696   26.3850  -19.5269 H   0  0  0  0  0  0  0  0  0  0  0  0
   35.8151   28.0274  -18.8522 H   0  0  0  0  0  0  0  0  0  0  0  0
   35.3650   29.3370  -15.7800 H   0  0  0  0  0  0  0  0  0  0  0  0
  1  2  2  0
  2  3  1  0
  3  4  1  0
  3  5  2  0
  5  6  1  0
  6  7  2  0
  7  8  1  0
  8  9  2  0
  9 10  1  0
 10 11  1  0
  9 12  1  0
 12 13  1  0
 13 14  1  0
 13 15  1  0
 12 16  2  0
  5 17  1  0
 17 18  1  0
 18 19  2  0
 19 20  1  0
 20 21  2  0
 21 22  1  0
 22 23  1  0
 22 24  2  0
 24  2  1  0
 16  6  1  0
 24 18  1  0
  4 25  1  0
  7 26  1  0
  8 27  1  0
 10 28  1  0
 10 29  1  0
 13 30  1  0
 16 31  1  0
 19 32  1  0
 20 33  1  0
 21 34  1  0
 23 35  1  0
M  END
>  <meeko>  (5) 
{"is_sidechain": [false], "free_energy": -5.835, "intermolecular_energy": -7.23, "internal_energy": 0.166}

$$$$
cand_019_out
     RDKit          3D

 35 37  0  0  0  0  0  0  0  0999 V2000
   38.8840   26.3900  -18.4520 O   0  0  0  0  0  0  0  0  0  0  0  0
   39.0210   26.8600  -17.3250 C   0  0  0  0  0  0  0  0  0  0  0  0
   40.2080   26.5180  -16.5070 C   0  0  0  0  0  0  0  0  0  0  0  0
   41.1260   25.6460  -17.0640 O   0  0  0  0  0  0  0  0  0  0  0  0
   40.3180   27.0550  -15.2780 C   0  0  0  0  0  0  0  0  0  0  0  0
   41.4510   26.7750  -14.3700 C   0  0  0  0  0  0  0  0  0  0  0  0
   41.4480   27.1970  -13.0360 C   0  0  0  0  0  0  0  0  0  0  0  0
   42.5200   26.9010  -12.1900 C   0  0  0  0  0  0  0  0  0  0  0  0
   43.6240   26.1720  -12.6550 C   0  0  0  0  0  0  0  0  0  0  0  0
   44.7600   25.8630  -11.7140 C   0  0  0  0  0  0  0  0  0  0  0  0
   45.8660   26.6170  -11.9690 F   0  0  0  0  0  0  0  0  0  0  0  0
   43.6320   25.7140  -13.9900 C   0  0  0  0  0  0  0  0  0  0  0  0
   44.7870   24.9040  -14.5370 C   0  0  0  0  0  0  0  0  0  0  0  0
   45.9500   25.6120  -14.5670 F   0  0  0  0  0  0  0  0  0  0  0  0
   45.0620   23.7940  -13.7910 F   0  0  0  0  0  0  0  0  0  0  0  0
   42.5460   26.0270  -14.8300 C   0  0  0  0  0  0  0  0  0  0  0  0
   39.3750   27.9090  -14.7180 O   0  0  0  0  0  0  0  0  0  0  0  0
   38.2680   28.2490  -15.4530 C   0  0  0  0  0  0  0  0  0  0  0  0
   37.3530   29.1170  -14.8560 C   0  0  0  0  0  0  0  0  0  0  0  0
   36.2040   29.5030  -15.5500 C   0  0  0  0  0  0  0  0  0  0  0  0
   35.9700   29.0210  -16.8400 C   0  0  0  0  0  0  0  0  0  0  0  0
   36.8860   28.1550  -17.4330 C   0  0  0  0  0  0  0  0  0  0  0  0
   36.5950   27.7210  -18.6980 O   0  0  0  0  0  0  0  0  0  0  0  0
   38.0350   27.7690  -16.7380 C   0  0  0  0  0  0  0  0  0  0  0  0
   40.8310   24.9300  -17.5920 H   0  0  0  0  0  0  0  0  0  0  0  0
   40.5917   27.7685  -12.6487 H   0  0  0  0  0  0  0  0  0  0  0  0
   42.4976   27.2444  -11.1452 H   0  0  0  0  0  0  0  0  0  0  0  0
   44.4285   26.0594  -10.6837 H   0  0  0  0  0  0  0  0  0  0  0  0
   45.0343   24.8071  -11.8550 H   0  0  0  0  0  0  0  0  0  0  0  0
   44.4537   24.6275  -15.5482 H   0  0  0  0  0  0  0  0  0  0  0  0
   42.5561   25.6766  -15.8726 H   0  0  0  0  0  0  0  0  0  0  0  0
   37.5364   29.4968  -13.8401 H   0  0  0  0  0  0  0  0  0  0  0  0
   35.4824   30.1875  -15.0801 H   0  0  0  0  0  0  0  0  0  0  0  0
   35.0647   29.3245  -17.3862 H   0  0  0  0  0  0  0  0  0  0  0  0
   36.7950   28.2620  -19.4360 H   0  0  0  0  0  0  0  0  0  0  0  0
  1  2  2  0
  2  3  1  0
  3  4  1  0
  3  5  2  0
  5  6  1  0
  6  7  2  0
  7  8  1  0
  8  9  2  0
  9 10  1  0
 10 11  1  0
  9 12  1  0
 12 13  1  0
 13 14  1  0
 13 15  1  0
 12 16  2  0
  5 17  1  0
 17 18  1  0
 18 19  2  0
 19 20  1  0
 20 21  2  0
 21 22  1  0
 22 23  1  0
 22 24  2  0
 24  2  1  0
 16  6  1  0
 24 18  1  0
  4 25  1  0
  7 26  1  0
  8 27  1  0
 10 28  1  0
 10 29  1  0
 13 30  1  0
 16 31  1  0
 19 32  1  0
 20 33  1  0
 21 34  1  0
 23 35  1  0
M  END
>  <meeko>  (6) 
{"is_sidechain": [false], "free_energy": -5.816, "intermolecular_energy": -7.376, "internal_energy": 0.335}

$$$$
cand_019_out
     RDKit          3D

 35 37  0  0  0  0  0  0  0  0999 V2000
   37.6940   25.9020  -19.1990 O   0  0  0  0  0  0  0  0  0  0  0  0
   37.7040   26.6710  -18.2400 C   0  0  0  0  0  0  0  0  0  0  0  0
   38.6940   26.5000  -17.1510 C   0  0  0  0  0  0  0  0  0  0  0  0
   39.5760   25.4410  -17.2630 O   0  0  0  0  0  0  0  0  0  0  0  0
   38.6690   27.3640  -16.1190 C   0  0  0  0  0  0  0  0  0  0  0  0
   39.5990   27.2830  -14.9720 C   0  0  0  0  0  0  0  0  0  0  0  0
   39.2980   27.8680  -13.7380 C   0  0  0  0  0  0  0  0  0  0  0  0
   40.1820   27.7580  -12.6600 C   0  0  0  0  0  0  0  0  0  0  0  0
   41.3900   27.0580  -12.7890 C   0  0  0  0  0  0  0  0  0  0  0  0
   42.3170   26.9530  -11.6050 C   0  0  0  0  0  0  0  0  0  0  0  0
   41.6590   26.6270  -10.4570 F   0  0  0  0  0  0  0  0  0  0  0  0
   41.6970   26.4380  -14.0190 C   0  0  0  0  0  0  0  0  0  0  0  0
   42.9760   25.6510  -14.2050 C   0  0  0  0  0  0  0  0  0  0  0  0
   43.0200   25.0090  -15.4070 F   0  0  0  0  0  0  0  0  0  0  0  0
   44.0950   26.4320  -14.1750 F   0  0  0  0  0  0  0  0  0  0  0  0
   40.7970   26.5640  -15.0950 C   0  0  0  0  0  0  0  0  0  0  0  0
   37.7590   28.4090  -16.0040 O   0  0  0  0  0  0  0  0  0  0  0  0
   36.8350   28.5960  -17.0010 C   0  0  0  0  0  0  0  0  0  0  0  0
   35.9480   29.6630  -16.8490 C   0  0  0  0  0  0  0  0  0  0  0  0
   34.9810   29.9090  -17.8270 C   0  0  0  0  0  0  0  0  0  0  0  0
   34.9010   29.0880  -18.9550 C   0  0  0  0  0  0  0  0  0  0  0  0
   35.7880   28.0240  -19.1020 C   0  0  0  0  0  0  0  0  0  0  0  0
   35.6530   27.2620  -20.2300 O   0  0  0  0  0  0  0  0  0  0  0  0
   36.7540   27.7790  -18.1240 C   0  0  0  0  0  0  0  0  0  0  0  0
   40.4990   25.5920  -17.2080 H   0  0  0  0  0  0  0  0  0  0  0  0
   38.3552   28.4209  -13.6139 H   0  0  0  0  0  0  0  0  0  0  0  0
   39.9263   28.2268  -11.6983 H   0  0  0  0  0  0  0  0  0  0  0  0
   43.0694   26.1780  -11.8131 H   0  0  0  0  0  0  0  0  0  0  0  0
   42.7834   27.9380  -11.4560 H   0  0  0  0  0  0  0  0  0  0  0  0
   42.9682   24.9418  -13.3642 H   0  0  0  0  0  0  0  0  0  0  0  0
   41.0397   26.0866  -16.0558 H   0  0  0  0  0  0  0  0  0  0  0  0
   36.0102   30.3090  -15.9609 H   0  0  0  0  0  0  0  0  0  0  0  0
   34.2818   30.7499  -17.7089 H   0  0  0  0  0  0  0  0  0  0  0  0
   34.1395   29.2815  -19.7249 H   0  0  0  0  0  0  0  0  0  0  0  0
   34.9640   27.4410  -20.8380 H   0  0  0  0  0  0  0  0  0  0  0  0
  1  2  2  0
  2  3  1  0
  3  4  1  0
  3  5  2  0
  5  6  1  0
  6  7  2  0
  7  8  1  0
  8  9  2  0
  9 10  1  0
 10 11  1  0
  9 12  1  0
 12 13  1  0
 13 14  1  0
 13 15  1  0
 12 16  2  0
  5 17  1  0
 17 18  1  0
 18 19  2  0
 19 20  1  0
 20 21  2  0
 21 22  1  0
 22 23  1  0
 22 24  2  0
 24  2  1  0
 16  6  1  0
 24 18  1  0
  4 25  1  0
  7 26  1  0
  8 27  1  0
 10 28  1  0
 10 29  1  0
 13 30  1  0
 16 31  1  0
 19 32  1  0
 20 33  1  0
 21 34  1  0
 23 35  1  0
M  END
>  <meeko>  (7) 
{"is_sidechain": [false], "free_energy": -5.524, "intermolecular_energy": -6.803, "internal_energy": 0.123}

$$$$
cand_019_out
     RDKit          3D

 35 37  0  0  0  0  0  0  0  0999 V2000
   42.5810   25.4920  -16.0470 O   0  0  0  0  0  0  0  0  0  0  0  0
   41.6530   26.1220  -15.5440 C   0  0  0  0  0  0  0  0  0  0  0  0
   40.4960   26.5430  -16.3680 C   0  0  0  0  0  0  0  0  0  0  0  0
   40.5250   26.2090  -17.7100 O   0  0  0  0  0  0  0  0  0  0  0  0
   39.5040   27.2330  -15.7770 C   0  0  0  0  0  0  0  0  0  0  0  0
   38.3080   27.7150  -16.5030 C   0  0  0  0  0  0  0  0  0  0  0  0
   37.6450   28.8890  -16.1320 C   0  0  0  0  0  0  0  0  0  0  0  0
   36.5310   29.3370  -16.8460 C   0  0  0  0  0  0  0  0  0  0  0  0
   36.0510   28.6230  -17.9540 C   0  0  0  0  0  0  0  0  0  0  0  0
   34.8520   29.1390  -18.7070 C   0  0  0  0  0  0  0  0  0  0  0  0
   34.7540   30.4970  -18.6610 F   0  0  0  0  0  0  0  0  0  0  0  0
   36.7240   27.4500  -18.3590 C   0  0  0  0  0  0  0  0  0  0  0  0
   36.2640   26.6550  -19.5610 C   0  0  0  0  0  0  0  0  0  0  0  0
   35.3570   27.3350  -20.3170 F   0  0  0  0  0  0  0  0  0  0  0  0
   37.2800   26.3400  -20.4170 F   0  0  0  0  0  0  0  0  0  0  0  0
   37.8420   27.0110  -17.6230 C   0  0  0  0  0  0  0  0  0  0  0  0
   39.4990   27.5880  -14.4330 O   0  0  0  0  0  0  0  0  0  0  0  0
   40.5540   27.2060  -13.6430 C   0  0  0  0  0  0  0  0  0  0  0  0
   40.5030   27.5750  -12.2980 C   0  0  0  0  0  0  0  0  0  0  0  0
   41.5450   27.2180  -11.4390 C   0  0  0  0  0  0  0  0  0  0  0  0
   42.6370   26.4950  -11.9240 C   0  0  0  0  0  0  0  0  0  0  0  0
   42.6840   26.1290  -13.2670 C   0  0  0  0  0  0  0  0  0  0  0  0
   43.7820   25.4230  -13.6750 O   0  0  0  0  0  0  0  0  0  0  0  0
   41.6420   26.4860  -14.1260 C   0  0  0  0  0  0  0  0  0  0  0  0
   39.7300   26.1980  -18.2070 H   0  0  0  0  0  0  0  0  0  0  0  0
   38.0049   29.4665  -15.2678 H   0  0  0  0  0  0  0  0  0  0  0  0
   36.0234   30.2621  -16.5352 H   0  0  0  0  0  0  0  0  0  0  0  0
   34.9339   28.8263  -19.7584 H   0  0  0  0  0  0  0  0  0  0  0  0
   33.9524   28.7218  -18.2309 H   0  0  0  0  0  0  0  0  0  0  0  0
   35.8268   25.7478  -19.1185 H   0  0  0  0  0  0  0  0  0  0  0  0
   38.3625   26.0933  -17.9344 H   0  0  0  0  0  0  0  0  0  0  0  0
   39.6441   28.1457  -11.9152 H   0  0  0  0  0  0  0  0  0  0  0  0
   41.5054   27.5069  -10.3784 H   0  0  0  0  0  0  0  0  0  0  0  0
   43.4578   26.2154  -11.2471 H   0  0  0  0  0  0  0  0  0  0  0  0
   44.0810   25.4910  -14.5600 H   0  0  0  0  0  0  0  0  0  0  0  0
  1  2  2  0
  2  3  1  0
  3  4  1  0
  3  5  2  0
  5  6  1  0
  6  7  2  0
  7  8  1  0
  8  9  2  0
  9 10  1  0
 10 11  1  0
  9 12  1  0
 12 13  1  0
 13 14  1  0
 13 15  1  0
 12 16  2  0
  5 17  1  0
 17 18  1  0
 18 19  2  0
 19 20  1  0
 20 21  2  0
 21 22  1  0
 22 23  1  0
 22 24  2  0
 24  2  1  0
 16  6  1  0
 24 18  1  0
  4 25  1  0
  7 26  1  0
  8 27  1  0
 10 28  1  0
 10 29  1  0
 13 30  1  0
 16 31  1  0
 19 32  1  0
 20 33  1  0
 21 34  1  0
 23 35  1  0
M  END
>  <meeko>  (8) 
{"is_sidechain": [false], "free_energy": -4.981, "intermolecular_energy": -6.711, "internal_energy": 0.701}

$$$$
cand_019_out
     RDKit          3D

 35 37  0  0  0  0  0  0  0  0999 V2000
   43.5070   25.4190  -15.5780 O   0  0  0  0  0  0  0  0  0  0  0  0
   42.4460   25.9220  -15.2160 C   0  0  0  0  0  0  0  0  0  0  0  0
   41.3550   26.1580  -16.1880 C   0  0  0  0  0  0  0  0  0  0  0  0
   41.5960   25.8030  -17.5030 O   0  0  0  0  0  0  0  0  0  0  0  0
   40.2110   26.7130  -15.7480 C   0  0  0  0  0  0  0  0  0  0  0  0
   39.0600   27.0060  -16.6310 C   0  0  0  0  0  0  0  0  0  0  0  0
   38.7790   26.2270  -17.7570 C   0  0  0  0  0  0  0  0  0  0  0  0
   37.6720   26.5080  -18.5640 C   0  0  0  0  0  0  0  0  0  0  0  0
   36.8160   27.5770  -18.2630 C   0  0  0  0  0  0  0  0  0  0  0  0
   35.6280   27.8490  -19.1500 C   0  0  0  0  0  0  0  0  0  0  0  0
   35.5140   26.9410  -20.1590 F   0  0  0  0  0  0  0  0  0  0  0  0
   37.0690   28.3580  -17.1140 C   0  0  0  0  0  0  0  0  0  0  0  0
   36.1640   29.5080  -16.7300 C   0  0  0  0  0  0  0  0  0  0  0  0
   35.0010   29.5120  -17.4390 F   0  0  0  0  0  0  0  0  0  0  0  0
   35.7850   29.4760  -15.4190 F   0  0  0  0  0  0  0  0  0  0  0  0
   38.1920   28.0630  -16.3170 C   0  0  0  0  0  0  0  0  0  0  0  0
   39.9890   27.0910  -14.4290 O   0  0  0  0  0  0  0  0  0  0  0  0
   40.9790   26.8790  -13.5040 C   0  0  0  0  0  0  0  0  0  0  0  0
   40.7110   27.2650  -12.1890 C   0  0  0  0  0  0  0  0  0  0  0  0
   41.6760   27.0770  -11.1980 C   0  0  0  0  0  0  0  0  0  0  0  0
   42.9090   26.5060  -11.5200 C   0  0  0  0  0  0  0  0  0  0  0  0
   43.1740   26.1230  -12.8330 C   0  0  0  0  0  0  0  0  0  0  0  0
   44.4010   25.5700  -13.0780 O   0  0  0  0  0  0  0  0  0  0  0  0
   42.2080   26.3100  -13.8240 C   0  0  0  0  0  0  0  0  0  0  0  0
   42.4750   25.6550  -17.7940 H   0  0  0  0  0  0  0  0  0  0  0  0
   39.4366   25.3827  -18.0114 H   0  0  0  0  0  0  0  0  0  0  0  0
   37.4702   25.8825  -19.4461 H   0  0  0  0  0  0  0  0  0  0  0  0
   34.7147   27.8133  -18.5379 H   0  0  0  0  0  0  0  0  0  0  0  0
   35.7698   28.8402  -19.6055 H   0  0  0  0  0  0  0  0  0  0  0  0
   36.7728   30.3992  -16.9424 H   0  0  0  0  0  0  0  0  0  0  0  0
   38.3937   28.6763  -15.4264 H   0  0  0  0  0  0  0  0  0  0  0  0
   39.7408   27.7166  -11.9344 H   0  0  0  0  0  0  0  0  0  0  0  0
   41.4648   27.3792  -10.1616 H   0  0  0  0  0  0  0  0  0  0  0  0
   43.6693   26.3590  -10.7387 H   0  0  0  0  0  0  0  0  0  0  0  0
   44.5970   24.7080  -12.7680 H   0  0  0  0  0  0  0  0  0  0  0  0
  1  2  2  0
  2  3  1  0
  3  4  1  0
  3  5  2  0
  5  6  1  0
  6  7  2  0
  7  8  1  0
  8  9  2  0
  9 10  1  0
 10 11  1  0
  9 12  1  0
 12 13  1  0
 13 14  1  0
 13 15  1  0
 12 16  2  0
  5 17  1  0
 17 18  1  0
 18 19  2  0
 19 20  1  0
 20 21  2  0
 21 22  1  0
 22 23  1  0
 22 24  2  0
 24  2  1  0
 16  6  1  0
 24 18  1  0
  4 25  1  0
  7 26  1  0
  8 27  1  0
 10 28  1  0
 10 29  1  0
 13 30  1  0
 16 31  1  0
 19 32  1  0
 20 33  1  0
 21 34  1  0
 23 35  1  0
M  END
>  <meeko>  (9) 
{"is_sidechain": [false], "free_energy": -4.862, "intermolecular_energy": -6.5, "internal_energy": 0.637}

$$$$
