cand_031_out
     RDKit          3D

 36 38  0  0  0  0  0  0  0  0999 V2000
   46.8050   26.9930  -13.1150 C   0  0  0  0  0  0  0  0  0  0  0  0
   45.5130   27.0480  -12.7700 C   0  0  0  0  0  0  0  0  0  0  0  0
   44.4520   26.3170  -13.4800 C   0  0  0  0  0  0  0  0  0  0  0  0
   43.2010   26.9300  -13.6740 C   0  0  0  0  0  0  0  0  0  0  0  0
   42.1460   26.2610  -14.3150 C   0  0  0  0  0  0  0  0  0  0  0  0
   40.8560   26.9540  -14.5240 C   0  0  0  0  0  0  0  0  0  0  0  0
   40.3440   26.7640  -15.8020 O   0  0  0  0  0  0  0  0  0  0  0  0
   39.1510   27.3530  -16.1340 C   0  0  0  0  0  0  0  0  0  0  0  0
   38.6660   27.1250  -17.4220 C   0  0  0  0  0  0  0  0  0  0  0  0
   37.4570   27.6980  -17.8230 C   0  0  0  0  0  0  0  0  0  0  0  0
   36.7330   28.4980  -16.9370 C   0  0  0  0  0  0  0  0  0  0  0  0
   37.2190   28.7240  -15.6520 C   0  0  0  0  0  0  0  0  0  0  0  0
   36.4600   29.5180  -14.8370 O   0  0  0  0  0  0  0  0  0  0  0  0
   38.4280   28.1510  -15.2510 C   0  0  0  0  0  0  0  0  0  0  0  0
   38.9730   28.3630  -13.9090 C   0  0  0  0  0  0  0  0  0  0  0  0
   38.3990   29.0600  -13.0750 O   0  0  0  0  0  0  0  0  0  0  0  0
   40.2590   27.7050  -13.5810 C   0  0  0  0  0  0  0  0  0  0  0  0
   40.7730   27.9240  -12.3160 O   0  0  0  0  0  0  0  0  0  0  0  0
   42.3650   24.9580  -14.7710 C   0  0  0  0  0  0  0  0  0  0  0  0
   43.5980   24.3330  -14.5770 C   0  0  0  0  0  0  0  0  0  0  0  0
   44.6520   24.9990  -13.9330 C   0  0  0  0  0  0  0  0  0  0  0  0
   45.9620   24.2830  -13.7440 C   0  0  0  0  0  0  0  0  0  0  0  0
   47.5517   27.5637  -12.5434 H   0  0  0  0  0  0  0  0  0  0  0  0
   47.1202   26.3771  -13.9702 H   0  0  0  0  0  0  0  0  0  0  0  0
   45.2295   27.6728  -11.9102 H   0  0  0  0  0  0  0  0  0  0  0  0
   43.0455   27.9581  -13.3150 H   0  0  0  0  0  0  0  0  0  0  0  0
   39.2351   26.4946  -18.1211 H   0  0  0  0  0  0  0  0  0  0  0  0
   37.0746   27.5186  -18.8387 H   0  0  0  0  0  0  0  0  0  0  0  0
   35.7808   28.9487  -17.2534 H   0  0  0  0  0  0  0  0  0  0  0  0
   36.1470   30.3450  -15.1460 H   0  0  0  0  0  0  0  0  0  0  0  0
   40.2270   27.8110  -11.5630 H   0  0  0  0  0  0  0  0  0  0  0  0
   41.5572   24.4194  -15.2882 H   0  0  0  0  0  0  0  0  0  0  0  0
   43.7456   23.3032  -14.9342 H   0  0  0  0  0  0  0  0  0  0  0  0
   46.1669   24.1710  -12.6691 H   0  0  0  0  0  0  0  0  0  0  0  0
   45.9076   23.2892  -14.2124 H   0  0  0  0  0  0  0  0  0  0  0  0
   46.7691   24.8654  -14.2124 H   0  0  0  0  0  0  0  0  0  0  0  0
  1  2  2  0
  2  3  1  0
  3  4  2  0
  4  5  1  0
  5  6  1  0
  6  7  1  0
  7  8  1  0
  8  9  2  0
  9 10  1  0
 10 11  2  0
 11 12  1  0
 12 13  1  0
 12 14  2  0
 14 15  1  0
 15 16  2  0
 15 17  1  0
 17 18  1  0
  5 19  2  0
 19 20  1  0
 20 21  2  0
 21 22  1  0
 21  3  1  0
 17  6  2  0
 14  8  1  0
  1 23  1  0
  1 24  1  0
  2 25  1  0
  4 26  1  0
  9 27  1  0
 10 28  1  0
 11 29  1  0
 13 30  1  0
 18 31  1  0
 19 32  1  0
 20 33  1  0
 22 34  1  0
 22 35  1  0
 22 36  1  0
M  END
>  <meeko>  (1) 
{"is_sidechain": [false], "free_energy": -7.81, "intermolecular_energy": -9.18, "internal_energy": 0.59}

$$$$
cand_031_out
     RDKit          3D

 36 38  0  0  0  0  0  0  0  0999 V2000
   38.0220   26.5750  -19.1250 C   0  0  0  0  0  0  0  0  0  0  0  0
   37.1430   26.9740  -18.1980 C   0  0  0  0  0  0  0  0  0  0  0  0
   37.5170   27.7530  -17.0080 C   0  0  0  0  0  0  0  0  0  0  0  0
   38.5840   27.3150  -16.2020 C   0  0  0  0  0  0  0  0  0  0  0  0
   38.9570   28.0040  -15.0370 C   0  0  0  0  0  0  0  0  0  0  0  0
   40.1030   27.5250  -14.2350 C   0  0  0  0  0  0  0  0  0  0  0  0
   41.0650   26.8780  -15.0030 O   0  0  0  0  0  0  0  0  0  0  0  0
   42.1830   26.3800  -14.3850 C   0  0  0  0  0  0  0  0  0  0  0  0
   43.1290   25.7500  -15.1950 C   0  0  0  0  0  0  0  0  0  0  0  0
   44.2900   25.2200  -14.6280 C   0  0  0  0  0  0  0  0  0  0  0  0
   44.5050   25.3210  -13.2520 C   0  0  0  0  0  0  0  0  0  0  0  0
   43.5610   25.9500  -12.4460 C   0  0  0  0  0  0  0  0  0  0  0  0
   43.8360   26.0120  -11.1070 O   0  0  0  0  0  0  0  0  0  0  0  0
   42.3990   26.4800  -13.0140 C   0  0  0  0  0  0  0  0  0  0  0  0
   41.3820   27.1500  -12.2020 C   0  0  0  0  0  0  0  0  0  0  0  0
   41.4960   27.2710  -10.9840 O   0  0  0  0  0  0  0  0  0  0  0  0
   40.1900   27.6830  -12.9020 C   0  0  0  0  0  0  0  0  0  0  0  0
   39.2280   28.3010  -12.1240 O   0  0  0  0  0  0  0  0  0  0  0  0
   38.2440   29.1550  -14.6890 C   0  0  0  0  0  0  0  0  0  0  0  0
   37.1760   29.5970  -15.4730 C   0  0  0  0  0  0  0  0  0  0  0  0
   36.8010   28.9070  -16.6350 C   0  0  0  0  0  0  0  0  0  0  0  0
   35.6410   29.4190  -17.4470 C   0  0  0  0  0  0  0  0  0  0  0  0
   37.6793   25.9939  -19.9938 H   0  0  0  0  0  0  0  0  0  0  0  0
   39.0871   26.8282  -19.0181 H   0  0  0  0  0  0  0  0  0  0  0  0
   36.0850   26.7051  -18.3333 H   0  0  0  0  0  0  0  0  0  0  0  0
   39.1394   26.4108  -16.4917 H   0  0  0  0  0  0  0  0  0  0  0  0
   42.9603   25.6710  -16.2791 H   0  0  0  0  0  0  0  0  0  0  0  0
   45.0356   24.7227  -15.2658 H   0  0  0  0  0  0  0  0  0  0  0  0
   45.4197   24.9038  -12.8056 H   0  0  0  0  0  0  0  0  0  0  0  0
   43.3250   26.5650  -10.5480 H   0  0  0  0  0  0  0  0  0  0  0  0
   38.5280   28.7710  -12.5320 H   0  0  0  0  0  0  0  0  0  0  0  0
   38.5272   29.7187  -13.7879 H   0  0  0  0  0  0  0  0  0  0  0  0
   36.6212   30.4989  -15.1749 H   0  0  0  0  0  0  0  0  0  0  0  0
   34.8468   29.7695  -16.7714 H   0  0  0  0  0  0  0  0  0  0  0  0
   35.9770   30.2524  -18.0814 H   0  0  0  0  0  0  0  0  0  0  0  0
   35.2517   28.6091  -18.0814 H   0  0  0  0  0  0  0  0  0  0  0  0
  1  2  2  0
  2  3  1  0
  3  4  2  0
  4  5  1  0
  5  6  1  0
  6  7  1  0
  7  8  1  0
  8  9  2  0
  9 10  1  0
 10 11  2  0
 11 12  1  0
 12 13  1  0
 12 14  2  0
 14 15  1  0
 15 16  2  0
 15 17  1  0
 17 18  1  0
  5 19  2  0
 19 20  1  0
 20 21  2  0
 21 22  1  0
 21  3  1  0
 17  6  2  0
 14  8  1  0
  1 23  1  0
  1 24  1  0
  2 25  1  0
  4 26  1  0
  9 27  1  0
 10 28  1  0
 11 29  1  0
 13 30  1  0
 18 31  1  0
 19 32  1  0
 20 33  1  0
 22 34  1  0
 22 35  1  0
 22 36  1  0
M  END
>  <meeko>  (2) 
{"is_sidechain": [false], "free_energy": -7.12, "intermolecular_energy": -7.737, "internal_energy": -0.041}

$$$$
cand_031_out
     RDKit          3D

 36 38  0  0  0  0  0  0  0  0999 V2000
   46.1170   27.3410  -12.7050 C   0  0  0  0  0  0  0  0  0  0  0  0
   44.7790   27.3160  -12.6970 C   0  0  0  0  0  0  0  0  0  0  0  0
   43.9800   26.4150  -13.5410 C   0  0  0  0  0  0  0  0  0  0  0  0
   42.7940   26.8900  -14.1310 C   0  0  0  0  0  0  0  0  0  0  0  0
   41.9790   26.0590  -14.9160 C   0  0  0  0  0  0  0  0  0  0  0  0
   40.7560   26.6080  -15.5410 C   0  0  0  0  0  0  0  0  0  0  0  0
   40.0190   27.4060  -14.6730 O   0  0  0  0  0  0  0  0  0  0  0  0
   38.8570   27.9790  -15.1240 C   0  0  0  0  0  0  0  0  0  0  0  0
   38.1550   28.7820  -14.2240 C   0  0  0  0  0  0  0  0  0  0  0  0
   36.9640   29.3940  -14.6190 C   0  0  0  0  0  0  0  0  0  0  0  0
   36.4750   29.2030  -15.9130 C   0  0  0  0  0  0  0  0  0  0  0  0
   37.1760   28.4010  -16.8080 C   0  0  0  0  0  0  0  0  0  0  0  0
   36.6390   28.2560  -18.0580 O   0  0  0  0  0  0  0  0  0  0  0  0
   38.3680   27.7890  -16.4130 C   0  0  0  0  0  0  0  0  0  0  0  0
   39.1370   26.9390  -17.3240 C   0  0  0  0  0  0  0  0  0  0  0  0
   38.7670   26.7160  -18.4750 O   0  0  0  0  0  0  0  0  0  0  0  0
   40.3910   26.3420  -16.8090 C   0  0  0  0  0  0  0  0  0  0  0  0
   41.1010   25.5290  -17.6720 O   0  0  0  0  0  0  0  0  0  0  0  0
   42.3750   24.7330  -15.1120 C   0  0  0  0  0  0  0  0  0  0  0  0
   43.5440   24.2440  -14.5250 C   0  0  0  0  0  0  0  0  0  0  0  0
   44.3570   25.0720  -13.7380 C   0  0  0  0  0  0  0  0  0  0  0  0
   45.6060   24.5000  -13.1230 C   0  0  0  0  0  0  0  0  0  0  0  0
   46.6580   28.0391  -12.0492 H   0  0  0  0  0  0  0  0  0  0  0  0
   46.6758   26.6635  -13.3673 H   0  0  0  0  0  0  0  0  0  0  0  0
   44.2490   28.0057  -12.0237 H   0  0  0  0  0  0  0  0  0  0  0  0
   42.4984   27.9377  -13.9733 H   0  0  0  0  0  0  0  0  0  0  0  0
   38.5397   28.9326  -13.2045 H   0  0  0  0  0  0  0  0  0  0  0  0
   36.4103   30.0273  -13.9102 H   0  0  0  0  0  0  0  0  0  0  0  0
   35.5370   29.6859  -16.2242 H   0  0  0  0  0  0  0  0  0  0  0  0
   37.1160   28.5460  -18.8110 H   0  0  0  0  0  0  0  0  0  0  0  0
   41.5340   24.7640  -17.3460 H   0  0  0  0  0  0  0  0  0  0  0  0
   41.7594   24.0676  -15.7352 H   0  0  0  0  0  0  0  0  0  0  0  0
   43.8312   23.1939  -14.6824 H   0  0  0  0  0  0  0  0  0  0  0  0
   45.5250   24.5371  -12.0266 H   0  0  0  0  0  0  0  0  0  0  0  0
   45.7289   23.4558  -13.4465 H   0  0  0  0  0  0  0  0  0  0  0  0
   46.4769   25.0890  -13.4465 H   0  0  0  0  0  0  0  0  0  0  0  0
  1  2  2  0
  2  3  1  0
  3  4  2  0
  4  5  1  0
  5  6  1  0
  6  7  1  0
  7  8  1  0
  8  9  2  0
  9 10  1  0
 10 11  2  0
 11 12  1  0
 12 13  1  0
 12 14  2  0
 14 15  1  0
 15 16  2  0
 15 17  1  0
 17 18  1  0
  5 19  2  0
 19 20  1  0
 20 21  2  0
 21 22  1  0
 21  3  1  0
 17  6  2  0
 14  8  1  0
  1 23  1  0
  1 24  1  0
  2 25  1  0
  4 26  1  0
  9 27  1  0
 10 28  1  0
 11 29  1  0
 13 30  1  0
 18 31  1  0
 19 32  1  0
 20 33  1  0
 22 34  1  0
 22 35  1  0
 22 36  1  0
M  END
>  <meeko>  (3) 
{"is_sidechain": [false], "free_energy": -7.077, "intermolecular_energy": -8.285, "internal_energy": 0.557}

$$$$
cand_031_out
     RDKit          3D

 36 38  0  0  0  0  0  0  0  0999 V2000
   46.0220   25.1360  -14.1890 C   0  0  0  0  0  0  0  0  0  0  0  0
   44.7330   24.8070  -14.3400 C   0  0  0  0  0  0  0  0  0  0  0  0
   43.6230   25.6270  -13.8320 C   0  0  0  0  0  0  0  0  0  0  0  0
   42.5560   25.9540  -14.6890 C   0  0  0  0  0  0  0  0  0  0  0  0
   41.4910   26.7620  -14.2620 C   0  0  0  0  0  0  0  0  0  0  0  0
   40.3760   27.0570  -15.1880 C   0  0  0  0  0  0  0  0  0  0  0  0
   39.4090   27.8800  -14.6220 O   0  0  0  0  0  0  0  0  0  0  0  0
   38.3160   28.2320  -15.3710 C   0  0  0  0  0  0  0  0  0  0  0  0
   37.3770   29.0710  -14.7690 C   0  0  0  0  0  0  0  0  0  0  0  0
   36.2400   29.4660  -15.4770 C   0  0  0  0  0  0  0  0  0  0  0  0
   36.0410   29.0220  -16.7860 C   0  0  0  0  0  0  0  0  0  0  0  0
   36.9790   28.1850  -17.3850 C   0  0  0  0  0  0  0  0  0  0  0  0
   36.7220   27.7890  -18.6690 O   0  0  0  0  0  0  0  0  0  0  0  0
   38.1170   27.7910  -16.6760 C   0  0  0  0  0  0  0  0  0  0  0  0
   39.1270   26.9130  -17.2690 C   0  0  0  0  0  0  0  0  0  0  0  0
   39.0200   26.4750  -18.4130 O   0  0  0  0  0  0  0  0  0  0  0  0
   40.3000   26.5590  -16.4360 C   0  0  0  0  0  0  0  0  0  0  0  0
   41.2410   25.7170  -16.9990 O   0  0  0  0  0  0  0  0  0  0  0  0
   41.5030   27.2390  -12.9480 C   0  0  0  0  0  0  0  0  0  0  0  0
   42.5600   26.9320  -12.0890 C   0  0  0  0  0  0  0  0  0  0  0  0
   43.6270   26.1270  -12.5150 C   0  0  0  0  0  0  0  0  0  0  0  0
   44.7450   25.8250  -11.5540 C   0  0  0  0  0  0  0  0  0  0  0  0
   46.8079   24.4803  -14.5921 H   0  0  0  0  0  0  0  0  0  0  0  0
   46.2952   26.0620  -13.6618 H   0  0  0  0  0  0  0  0  0  0  0  0
   44.4917   23.8748  -14.8717 H   0  0  0  0  0  0  0  0  0  0  0  0
   42.5567   25.5669  -15.7186 H   0  0  0  0  0  0  0  0  0  0  0  0
   37.5324   29.4208  -13.7377 H   0  0  0  0  0  0  0  0  0  0  0  0
   35.5001   30.1278  -15.0030 H   0  0  0  0  0  0  0  0  0  0  0  0
   35.1448   29.3329  -17.3430 H   0  0  0  0  0  0  0  0  0  0  0  0
   36.0770   28.2380  -19.1780 H   0  0  0  0  0  0  0  0  0  0  0  0
   41.5220   25.8540  -17.8830 H   0  0  0  0  0  0  0  0  0  0  0  0
   40.6715   27.8623  -12.5873 H   0  0  0  0  0  0  0  0  0  0  0  0
   42.5560   27.3274  -11.0625 H   0  0  0  0  0  0  0  0  0  0  0  0
   44.3780   25.9241  -10.5218 H   0  0  0  0  0  0  0  0  0  0  0  0
   45.1029   24.7980  -11.7189 H   0  0  0  0  0  0  0  0  0  0  0  0
   45.5713   26.5321  -11.7189 H   0  0  0  0  0  0  0  0  0  0  0  0
  1  2  2  0
  2  3  1  0
  3  4  2  0
  4  5  1  0
  5  6  1  0
  6  7  1  0
  7  8  1  0
  8  9  2  0
  9 10  1  0
 10 11  2  0
 11 12  1  0
 12 13  1  0
 12 14  2  0
 14 15  1  0
 15 16  2  0
 15 17  1  0
 17 18  1  0
  5 19  2  0
 19 20  1  0
 20 21  2  0
 21 22  1  0
 21  3  1  0
 17  6  2  0
 14  8  1  0
  1 23  1  0
  1 24  1  0
  2 25  1  0
  4 26  1  0
  9 27  1  0
 10 28  1  0
 11 29  1  0
 13 30  1  0
 18 31  1  0
 19 32  1  0
 20 33  1  0
 22 34  1  0
 22 35  1  0
 22 36  1  0
M  END
>  <meeko>  (4) 
{"is_sidechain": [false], "free_energy": -6.734, "intermolecular_energy": -8.131, "internal_energy": 0.806}

$$$$
cand_031_out
     RDKit          3D

 36 38  0  0  0  0  0  0  0  0999 V2000
   45.6230   24.9400  -14.2270 C   0  0  0  0  0  0  0  0  0  0  0  0
   44.3410   25.0510  -14.5970 C   0  0  0  0  0  0  0  0  0  0  0  0
   43.3400   25.8100  -13.8310 C   0  0  0  0  0  0  0  0  0  0  0  0
   42.1850   26.2830  -14.4800 C   0  0  0  0  0  0  0  0  0  0  0  0
   41.2180   27.0410  -13.8020 C   0  0  0  0  0  0  0  0  0  0  0  0
   40.0040   27.4920  -14.5160 C   0  0  0  0  0  0  0  0  0  0  0  0
   39.8580   26.8930  -15.7620 O   0  0  0  0  0  0  0  0  0  0  0  0
   38.7740   27.2230  -16.5340 C   0  0  0  0  0  0  0  0  0  0  0  0
   38.6590   26.5890  -17.7720 C   0  0  0  0  0  0  0  0  0  0  0  0
   37.5790   26.8810  -18.6070 C   0  0  0  0  0  0  0  0  0  0  0  0
   36.6140   27.8070  -18.2060 C   0  0  0  0  0  0  0  0  0  0  0  0
   36.7310   28.4380  -16.9710 C   0  0  0  0  0  0  0  0  0  0  0  0
   35.7500   29.3340  -16.6410 O   0  0  0  0  0  0  0  0  0  0  0  0
   37.8110   28.1460  -16.1350 C   0  0  0  0  0  0  0  0  0  0  0  0
   37.9700   28.7870  -14.8290 C   0  0  0  0  0  0  0  0  0  0  0  0
   37.1670   29.6170  -14.4080 O   0  0  0  0  0  0  0  0  0  0  0  0
   39.1480   28.4020  -14.0160 C   0  0  0  0  0  0  0  0  0  0  0  0
   39.2970   29.0240  -12.7900 O   0  0  0  0  0  0  0  0  0  0  0  0
   41.4210   27.3170  -12.4460 C   0  0  0  0  0  0  0  0  0  0  0  0
   42.5670   26.8650  -11.7910 C   0  0  0  0  0  0  0  0  0  0  0  0
   43.5360   26.1100  -12.4690 C   0  0  0  0  0  0  0  0  0  0  0  0
   44.7570   25.6450  -11.7210 C   0  0  0  0  0  0  0  0  0  0  0  0
   46.3247   24.3579  -14.8425 H   0  0  0  0  0  0  0  0  0  0  0  0
   45.9746   25.4309  -13.3075 H   0  0  0  0  0  0  0  0  0  0  0  0
   44.0195   24.5488  -15.5214 H   0  0  0  0  0  0  0  0  0  0  0  0
   42.0362   26.0530  -15.5453 H   0  0  0  0  0  0  0  0  0  0  0  0
   39.4188   25.8597  -18.0896 H   0  0  0  0  0  0  0  0  0  0  0  0
   37.4881   26.3807  -19.5824 H   0  0  0  0  0  0  0  0  0  0  0  0
   35.7635   28.0372  -18.8645 H   0  0  0  0  0  0  0  0  0  0  0  0
   35.0200   29.4630  -17.2140 H   0  0  0  0  0  0  0  0  0  0  0  0
   38.5460   29.3610  -12.3420 H   0  0  0  0  0  0  0  0  0  0  0  0
   40.6693   27.8965  -11.8901 H   0  0  0  0  0  0  0  0  0  0  0  0
   42.7130   27.1041  -10.7273 H   0  0  0  0  0  0  0  0  0  0  0  0
   44.5728   25.7151  -10.6388 H   0  0  0  0  0  0  0  0  0  0  0  0
   44.9755   24.6007  -11.9888 H   0  0  0  0  0  0  0  0  0  0  0  0
   45.6148   26.2794  -11.9888 H   0  0  0  0  0  0  0  0  0  0  0  0
  1  2  2  0
  2  3  1  0
  3  4  2  0
  4  5  1  0
  5  6  1  0
  6  7  1  0
  7  8  1  0
  8  9  2  0
  9 10  1  0
 10 11  2  0
 11 12  1  0
 12 13  1  0
 12 14  2  0
 14 15  1  0
 15 16  2  0
 15 17  1  0
 17 18  1  0
  5 19  2  0
 19 20  1  0
 20 21  2  0
 21 22  1  0
 21  3  1  0
 17  6  2  0
 14  8  1  0
  1 23  1  0
  1 24  1  0
  2 25  1  0
  4 26  1  0
  9 27  1  0
 10 28  1  0
 11 29  1  0
 13 30  1  0
 18 31  1  0
 19 32  1  0
 20 33  1  0
 22 34  1  0
 22 35  1  0
 22 36  1  0
M  END
>  <meeko>  (5) 
{"is_sidechain": [false], "free_energy": -6.714, "intermolecular_energy": -8.386, "internal_energy": 1.085}

$$$$
cand_031_out
     RDKit          3D

 36 38  0  0  0  0  0  0  0  0999 V2000
   35.6780   29.6150  -17.4910 C   0  0  0  0  0  0  0  0  0  0  0  0
   36.5210   29.2190  -16.5290 C   0  0  0  0  0  0  0  0  0  0  0  0
   37.5050   28.1410  -16.7080 C   0  0  0  0  0  0  0  0  0  0  0  0
   38.5250   27.9700  -15.7530 C   0  0  0  0  0  0  0  0  0  0  0  0
   39.5080   26.9780  -15.8970 C   0  0  0  0  0  0  0  0  0  0  0  0
   40.5440   26.8150  -14.8540 C   0  0  0  0  0  0  0  0  0  0  0  0
   41.7070   26.2260  -15.3380 O   0  0  0  0  0  0  0  0  0  0  0  0
   42.7510   26.0130  -14.4750 C   0  0  0  0  0  0  0  0  0  0  0  0
   43.9040   25.4320  -15.0050 C   0  0  0  0  0  0  0  0  0  0  0  0
   45.0030   25.1870  -14.1800 C   0  0  0  0  0  0  0  0  0  0  0  0
   44.9510   25.5220  -12.8260 C   0  0  0  0  0  0  0  0  0  0  0  0
   43.7990   26.1010  -12.2990 C   0  0  0  0  0  0  0  0  0  0  0  0
   43.8160   26.4040  -10.9650 O   0  0  0  0  0  0  0  0  0  0  0  0
   42.7000   26.3470  -13.1250 C   0  0  0  0  0  0  0  0  0  0  0  0
   41.4710   26.9550  -12.6110 C   0  0  0  0  0  0  0  0  0  0  0  0
   41.3450   27.2710  -11.4300 O   0  0  0  0  0  0  0  0  0  0  0  0
   40.3650   27.1790  -13.5710 C   0  0  0  0  0  0  0  0  0  0  0  0
   39.2040   27.7400  -13.0730 O   0  0  0  0  0  0  0  0  0  0  0  0
   39.4530   26.1450  -17.0180 C   0  0  0  0  0  0  0  0  0  0  0  0
   38.4530   26.3090  -17.9790 C   0  0  0  0  0  0  0  0  0  0  0  0
   37.4730   27.3020  -17.8380 C   0  0  0  0  0  0  0  0  0  0  0  0
   36.4160   27.4420  -18.9020 C   0  0  0  0  0  0  0  0  0  0  0  0
   34.9637   30.4284  -17.2958 H   0  0  0  0  0  0  0  0  0  0  0  0
   35.6998   29.1269  -18.4765 H   0  0  0  0  0  0  0  0  0  0  0  0
   36.4751   29.7265  -15.5541 H   0  0  0  0  0  0  0  0  0  0  0  0
   38.5525   28.6293  -14.8729 H   0  0  0  0  0  0  0  0  0  0  0  0
   43.9466   25.1674  -16.0718 H   0  0  0  0  0  0  0  0  0  0  0  0
   45.9117   24.7291  -14.5977 H   0  0  0  0  0  0  0  0  0  0  0  0
   45.8177   25.3292  -12.1767 H   0  0  0  0  0  0  0  0  0  0  0  0
   44.2490   25.8350  -10.3600 H   0  0  0  0  0  0  0  0  0  0  0  0
   38.7350   28.3740  -13.5800 H   0  0  0  0  0  0  0  0  0  0  0  0
   40.2050   25.3522  -17.1446 H   0  0  0  0  0  0  0  0  0  0  0  0
   38.4338   25.6497  -18.8593 H   0  0  0  0  0  0  0  0  0  0  0  0
   35.4325   27.5723  -18.4269 H   0  0  0  0  0  0  0  0  0  0  0  0
   36.6397   28.3184  -19.5281 H   0  0  0  0  0  0  0  0  0  0  0  0
   36.4039   26.5376  -19.5281 H   0  0  0  0  0  0  0  0  0  0  0  0
  1  2  2  0
  2  3  1  0
  3  4  2  0
  4  5  1  0
  5  6  1  0
  6  7  1  0
  7  8  1  0
  8  9  2  0
  9 10  1  0
 10 11  2  0
 11 12  1  0
 12 13  1  0
 12 14  2  0
 14 15  1  0
 15 16  2  0
 15 17  1  0
 17 18  1  0
  5 19  2  0
 19 20  1  0
 20 21  2  0
 21 22  1  0
 21  3  1  0
 17  6  2  0
 14  8  1  0
  1 23  1  0
  1 24  1  0
  2 25  1  0
  4 26  1  0
  9 27  1  0
 10 28  1  0
 11 29  1  0
 13 30  1  0
 18 31  1  0
 19 32  1  0
 20 33  1  0
 22 34  1  0
 22 35  1  0
 22 36  1  0
M  END
>  <meeko>  (6) 
{"is_sidechain": [false], "free_energy": -6.592, "intermolecular_energy": -8.314, "internal_energy": 1.156}

$$$$
cand_031_out
     RDKit          3D

 36 38  0  0  0  0  0  0  0  0999 V2000
   48.2620   26.8790  -14.8580 C   0  0  0  0  0  0  0  0  0  0  0  0
   47.2260   27.0360  -14.0240 C   0  0  0  0  0  0  0  0  0  0  0  0
   46.0930   26.1010  -13.9560 C   0  0  0  0  0  0  0  0  0  0  0  0
   44.8020   26.5520  -14.2870 C   0  0  0  0  0  0  0  0  0  0  0  0
   43.6830   25.7090  -14.2030 C   0  0  0  0  0  0  0  0  0  0  0  0
   42.3490   26.2170  -14.5890 C   0  0  0  0  0  0  0  0  0  0  0  0
   41.7580   26.9880  -13.5950 O   0  0  0  0  0  0  0  0  0  0  0  0
   40.5150   27.5220  -13.8200 C   0  0  0  0  0  0  0  0  0  0  0  0
   39.9640   28.3000  -12.8010 C   0  0  0  0  0  0  0  0  0  0  0  0
   38.7020   28.8720  -12.9660 C   0  0  0  0  0  0  0  0  0  0  0  0
   37.9890   28.6660  -14.1490 C   0  0  0  0  0  0  0  0  0  0  0  0
   38.5410   27.8890  -15.1650 C   0  0  0  0  0  0  0  0  0  0  0  0
   37.7880   27.7290  -16.2960 O   0  0  0  0  0  0  0  0  0  0  0  0
   39.8050   27.3170  -14.9990 C   0  0  0  0  0  0  0  0  0  0  0  0
   40.4200   26.4950  -16.0420 C   0  0  0  0  0  0  0  0  0  0  0  0
   39.8530   26.2620  -17.1080 O   0  0  0  0  0  0  0  0  0  0  0  0
   41.7670   25.9410  -15.7700 C   0  0  0  0  0  0  0  0  0  0  0  0
   42.3330   25.1530  -16.7560 O   0  0  0  0  0  0  0  0  0  0  0  0
   43.8770   24.3880  -13.7860 C   0  0  0  0  0  0  0  0  0  0  0  0
   45.1500   23.9280  -13.4450 C   0  0  0  0  0  0  0  0  0  0  0  0
   46.2680   24.7710  -13.5240 C   0  0  0  0  0  0  0  0  0  0  0  0
   47.6200   24.2310  -13.1430 C   0  0  0  0  0  0  0  0  0  0  0  0
   49.0808   27.6135  -14.8623 H   0  0  0  0  0  0  0  0  0  0  0  0
   48.2941   26.0155  -15.5387 H   0  0  0  0  0  0  0  0  0  0  0  0
   47.2224   27.9094  -13.3553 H   0  0  0  0  0  0  0  0  0  0  0  0
   44.6663   27.5916  -14.6200 H   0  0  0  0  0  0  0  0  0  0  0  0
   40.5241   28.4623  -11.8683 H   0  0  0  0  0  0  0  0  0  0  0  0
   38.2681   29.4861  -12.1631 H   0  0  0  0  0  0  0  0  0  0  0  0
   36.9937   29.1163  -14.2783 H   0  0  0  0  0  0  0  0  0  0  0  0
   37.5370   26.8700  -16.5740 H   0  0  0  0  0  0  0  0  0  0  0  0
   42.9480   25.5250  -17.3570 H   0  0  0  0  0  0  0  0  0  0  0  0
   43.0173   23.7044  -13.7262 H   0  0  0  0  0  0  0  0  0  0  0  0
   45.2782   22.8884  -13.1092 H   0  0  0  0  0  0  0  0  0  0  0  0
   47.7056   24.1968  -12.0469 H   0  0  0  0  0  0  0  0  0  0  0  0
   47.7382   23.2167  -13.5518 H   0  0  0  0  0  0  0  0  0  0  0  0
   48.4045   24.8848  -13.5518 H   0  0  0  0  0  0  0  0  0  0  0  0
  1  2  2  0
  2  3  1  0
  3  4  2  0
  4  5  1  0
  5  6  1  0
  6  7  1  0
  7  8  1  0
  8  9  2  0
  9 10  1  0
 10 11  2  0
 11 12  1  0
 12 13  1  0
 12 14  2  0
 14 15  1  0
 15 16  2  0
 15 17  1  0
 17 18  1  0
  5 19  2  0
 19 20  1  0
 20 21  2  0
 21 22  1  0
 21  3  1  0
 17  6  2  0
 14  8  1  0
  1 23  1  0
  1 24  1  0
  2 25  1  0
  4 26  1  0
  9 27  1  0
 10 28  1  0
 11 29  1  0
 13 30  1  0
 18 31  1  0
 19 32  1  0
 20 33  1  0
 22 34  1  0
 22 35  1  0
 22 36  1  0
M  END
>  <meeko>  (7) 
{"is_sidechain": [false], "free_energy": -5.594, "intermolecular_energy": -5.839, "internal_energy": -0.145}

$$$$
cand_031_out
     RDKit          3D

 36 38  0  0  0  0  0  0  0  0999 V2000
   42.3000   26.7080  -10.9880 C   0  0  0  0  0  0  0  0  0  0  0  0
   43.1300   26.5770  -12.0300 C   0  0  0  0  0  0  0  0  0  0  0  0
   42.6740   26.2910  -13.3990 C   0  0  0  0  0  0  0  0  0  0  0  0
   41.4610   26.8410  -13.8530 C   0  0  0  0  0  0  0  0  0  0  0  0
   40.9650   26.5700  -15.1380 C   0  0  0  0  0  0  0  0  0  0  0  0
   39.7000   27.1920  -15.5840 C   0  0  0  0  0  0  0  0  0  0  0  0
   39.2990   26.7550  -16.8410 O   0  0  0  0  0  0  0  0  0  0  0  0
   38.1400   27.2550  -17.3780 C   0  0  0  0  0  0  0  0  0  0  0  0
   37.7670   26.7790  -18.6360 C   0  0  0  0  0  0  0  0  0  0  0  0
   36.5990   27.2480  -19.2400 C   0  0  0  0  0  0  0  0  0  0  0  0
   35.8040   28.1920  -18.5870 C   0  0  0  0  0  0  0  0  0  0  0  0
   36.1780   28.6650  -17.3330 C   0  0  0  0  0  0  0  0  0  0  0  0
   35.3540   29.5890  -16.7510 O   0  0  0  0  0  0  0  0  0  0  0  0
   37.3470   28.1950  -16.7280 C   0  0  0  0  0  0  0  0  0  0  0  0
   37.7750   28.6670  -15.4100 C   0  0  0  0  0  0  0  0  0  0  0  0
   37.1330   29.5020  -14.7760 O   0  0  0  0  0  0  0  0  0  0  0  0
   39.0260   28.1010  -14.8550 C   0  0  0  0  0  0  0  0  0  0  0  0
   39.4300   28.5630  -13.6160 O   0  0  0  0  0  0  0  0  0  0  0  0
   41.7130   25.7370  -15.9760 C   0  0  0  0  0  0  0  0  0  0  0  0
   42.9130   25.1760  -15.5370 C   0  0  0  0  0  0  0  0  0  0  0  0
   43.4070   25.4430  -14.2510 C   0  0  0  0  0  0  0  0  0  0  0  0
   44.7050   24.8140  -13.8210 C   0  0  0  0  0  0  0  0  0  0  0  0
   42.7032   26.9222   -9.9872 H   0  0  0  0  0  0  0  0  0  0  0  0
   41.2148   26.6014  -11.1325 H   0  0  0  0  0  0  0  0  0  0  0  0
   44.2099   26.6891  -11.8533 H   0  0  0  0  0  0  0  0  0  0  0  0
   40.8872   27.4996  -13.1844 H   0  0  0  0  0  0  0  0  0  0  0  0
   38.3927   26.0351  -19.1509 H   0  0  0  0  0  0  0  0  0  0  0  0
   36.3047   26.8734  -20.2315 H   0  0  0  0  0  0  0  0  0  0  0  0
   34.8836   28.5611  -19.0631 H   0  0  0  0  0  0  0  0  0  0  0  0
   35.4320   30.4960  -16.9750 H   0  0  0  0  0  0  0  0  0  0  0  0
   40.3390   28.7230  -13.4490 H   0  0  0  0  0  0  0  0  0  0  0  0
   41.3515   25.5216  -16.9923 H   0  0  0  0  0  0  0  0  0  0  0  0
   43.4799   24.5148  -16.2089 H   0  0  0  0  0  0  0  0  0  0  0  0
   44.7546   24.7900  -12.7224 H   0  0  0  0  0  0  0  0  0  0  0  0
   44.7629   23.7879  -14.2132 H   0  0  0  0  0  0  0  0  0  0  0  0
   45.5462   25.4044  -14.2132 H   0  0  0  0  0  0  0  0  0  0  0  0
  1  2  2  0
  2  3  1  0
  3  4  2  0
  4  5  1  0
  5  6  1  0
  6  7  1  0
  7  8  1  0
  8  9  2  0
  9 10  1  0
 10 11  2  0
 11 12  1  0
 12 13  1  0
 12 14  2  0
 14 15  1  0
 15 16  2  0
 15 17  1  0
 17 18  1  0
  5 19  2  0
 19 20  1  0
 20 21  2  0
 21 22  1  0
 21  3  1  0
 17  6  2  0
 14  8  1  0
  1 23  1  0
  1 24  1  0
  2 25  1  0
  4 26  1  0
  9 27  1  0
 10 28  1  0
 11 29  1  0
 13 30  1  0
 18 31  1  0
 19 32  1  0
 20 33  1  0
 22 34  1  0
 22 35  1  0
 22 36  1  0
M  END
>  <meeko>  (8) 
{"is_sidechain": [false], "free_energy": -5.554, "intermolecular_energy": -6.171, "internal_energy": 0.234}

$$$$
