cand_020_out
     RDKit          3D

 50 53  0  0  0  0  0  0  0  0999 V2000
   47.4890   23.9300  -12.1520 C   0  0  0  0  0  0  0  0  0  0  0  0
   47.0680   23.9760  -13.6130 C   0  0  0  0  0  0  0  0  0  0  0  0
   45.7380   24.6720  -13.7990 C   0  0  0  0  0  0  0  0  0  0  0  0
   44.5650   23.9010  -13.8100 C   0  0  0  0  0  0  0  0  0  0  0  0
   43.3170   24.4970  -13.9980 C   0  0  0  0  0  0  0  0  0  0  0  0
   43.2100   25.8790  -14.1870 C   0  0  0  0  0  0  0  0  0  0  0  0
   41.8770   26.4980  -14.3550 C   0  0  0  0  0  0  0  0  0  0  0  0
   41.3380   26.2830  -15.6190 O   0  0  0  0  0  0  0  0  0  0  0  0
   40.1040   26.8030  -15.9100 C   0  0  0  0  0  0  0  0  0  0  0  0
   39.5950   26.5500  -17.1850 C   0  0  0  0  0  0  0  0  0  0  0  0
   38.3430   27.0520  -17.5470 C   0  0  0  0  0  0  0  0  0  0  0  0
   37.6010   27.8070  -16.6360 C   0  0  0  0  0  0  0  0  0  0  0  0
   38.1110   28.0570  -15.3650 C   0  0  0  0  0  0  0  0  0  0  0  0
   37.3330   28.8030  -14.5230 O   0  0  0  0  0  0  0  0  0  0  0  0
   39.3630   27.5540  -15.0020 C   0  0  0  0  0  0  0  0  0  0  0  0
   39.9360   27.7940  -13.6770 C   0  0  0  0  0  0  0  0  0  0  0  0
   39.3470   28.4530  -12.8240 O   0  0  0  0  0  0  0  0  0  0  0  0
   41.2670   27.2090  -13.3900 C   0  0  0  0  0  0  0  0  0  0  0  0
   41.8030   27.4540  -12.1390 O   0  0  0  0  0  0  0  0  0  0  0  0
   44.3830   26.6490  -14.1740 C   0  0  0  0  0  0  0  0  0  0  0  0
   45.6520   26.0650  -13.9950 C   0  0  0  0  0  0  0  0  0  0  0  0
   46.8350   26.8390  -13.9920 N   0  0  0  0  0  0  0  0  0  0  0  0
   47.3990   27.0300  -12.6460 C   0  0  0  0  0  0  0  0  0  0  0  0
   48.5170   28.0690  -12.7210 C   0  0  0  0  0  0  0  0  0  0  0  0
   49.5800   27.6620  -13.7410 C   0  0  0  0  0  0  0  0  0  0  0  0
   48.9480   27.3670  -15.1000 C   0  0  0  0  0  0  0  0  0  0  0  0
   47.8120   26.3490  -14.9770 C   0  0  0  0  0  0  0  0  0  0  0  0
   46.6003   24.0271  -11.5111 H   0  0  0  0  0  0  0  0  0  0  0  0
   47.9880   22.9720  -11.9442 H   0  0  0  0  0  0  0  0  0  0  0  0
   48.1831   24.7576  -11.9442 H   0  0  0  0  0  0  0  0  0  0  0  0
   47.8350   24.5171  -14.1865 H   0  0  0  0  0  0  0  0  0  0  0  0
   46.9615   22.9404  -13.9682 H   0  0  0  0  0  0  0  0  0  0  0  0
   44.6303   22.8121  -13.6685 H   0  0  0  0  0  0  0  0  0  0  0  0
   42.4099   23.8748  -13.9976 H   0  0  0  0  0  0  0  0  0  0  0  0
   40.1791   25.9562  -17.9035 H   0  0  0  0  0  0  0  0  0  0  0  0
   37.9407   26.8524  -18.5512 H   0  0  0  0  0  0  0  0  0  0  0  0
   36.6156   28.2033  -16.9222 H   0  0  0  0  0  0  0  0  0  0  0  0
   36.9300   29.5910  -14.8320 H   0  0  0  0  0  0  0  0  0  0  0  0
   41.4650   28.1520  -11.6120 H   0  0  0  0  0  0  0  0  0  0  0  0
   44.3094   27.7384  -14.3072 H   0  0  0  0  0  0  0  0  0  0  0  0
   46.6124   27.3826  -11.9626 H   0  0  0  0  0  0  0  0  0  0  0  0
   47.8004   26.0769  -12.2712 H   0  0  0  0  0  0  0  0  0  0  0  0
   48.0878   29.0377  -13.0167 H   0  0  0  0  0  0  0  0  0  0  0  0
   48.9924   28.1422  -11.7317 H   0  0  0  0  0  0  0  0  0  0  0  0
   50.3053   28.4816  -13.8516 H   0  0  0  0  0  0  0  0  0  0  0  0
   50.0809   26.7510  -13.3816 H   0  0  0  0  0  0  0  0  0  0  0  0
   48.5474   28.3018  -15.5191 H   0  0  0  0  0  0  0  0  0  0  0  0
   49.7219   26.9450  -15.7580 H   0  0  0  0  0  0  0  0  0  0  0  0
   47.3208   26.2246  -15.9534 H   0  0  0  0  0  0  0  0  0  0  0  0
   48.2154   25.3793  -14.6500 H   0  0  0  0  0  0  0  0  0  0  0  0
  1  2  1  0
  2  3  1  0
  3  4  2  0
  4  5  1  0
  5  6  2  0
  6  7  1  0
  7  8  1  0
  8  9  1  0
  9 10  2  0
 10 11  1  0
 11 12  2  0
 12 13  1  0
 13 14  1  0
 13 15  2  0
 15 16  1  0
 16 17  2  0
 16 18  1  0
 18 19  1  0
  6 20  1  0
 20 21  2  0
 21 22  1  0
 22 23  1  0
 23 24  1  0
 24 25  1  0
 25 26  1  0
 26 27  1  0
 21  3  1  0
 27 22  1  0
 18  7  2  0
 15  9  1  0
  1 28  1  0
  1 29  1  0
  1 30  1  0
  2 31  1  0
  2 32  1  0
  4 33  1  0
  5 34  1  0
 10 35  1  0
 11 36  1  0
 12 37  1  0
 14 38  1  0
 19 39  1  0
 20 40  1  0
 23 41  1  0
 23 42  1  0
 24 43  1  0
 24 44  1  0
 25 45  1  0
 25 46  1  0
 26 47  1  0
 26 48  1  0
 27 49  1  0
 27 50  1  0
M  END
>  <meeko>  (1) 
{"is_sidechain": [false], "free_energy": -3.85, "intermolecular_energy": -4.75, "internal_energy": 0.462}

$$$$
cand_020_out
     RDKit          3D

 50 53  0  0  0  0  0  0  0  0999 V2000
   40.7170   26.9400  -10.0400 C   0  0  0  0  0  0  0  0  0  0  0  0
   41.5640   27.3400  -11.2380 C   0  0  0  0  0  0  0  0  0  0  0  0
   40.7640   27.3520  -12.5220 C   0  0  0  0  0  0  0  0  0  0  0  0
   39.4730   27.9030  -12.5100 C   0  0  0  0  0  0  0  0  0  0  0  0
   38.6910   27.9180  -13.6660 C   0  0  0  0  0  0  0  0  0  0  0  0
   39.1760   27.3760  -14.8610 C   0  0  0  0  0  0  0  0  0  0  0  0
   38.3450   27.4270  -16.0830 C   0  0  0  0  0  0  0  0  0  0  0  0
   37.4060   28.4530  -16.0540 O   0  0  0  0  0  0  0  0  0  0  0  0
   36.5670   28.6150  -17.1260 C   0  0  0  0  0  0  0  0  0  0  0  0
   35.6520   29.6660  -17.0600 C   0  0  0  0  0  0  0  0  0  0  0  0
   34.7670   29.8860  -18.1180 C   0  0  0  0  0  0  0  0  0  0  0  0
   34.7970   29.0570  -19.2410 C   0  0  0  0  0  0  0  0  0  0  0  0
   35.7120   28.0090  -19.3040 C   0  0  0  0  0  0  0  0  0  0  0  0
   35.6880   27.2350  -20.4310 O   0  0  0  0  0  0  0  0  0  0  0  0
   36.5980   27.7890  -18.2450 C   0  0  0  0  0  0  0  0  0  0  0  0
   37.5750   26.7000  -18.2700 C   0  0  0  0  0  0  0  0  0  0  0  0
   37.6580   25.9240  -19.2200 O   0  0  0  0  0  0  0  0  0  0  0  0
   38.4740   26.5580  -17.1020 C   0  0  0  0  0  0  0  0  0  0  0  0
   39.3840   25.5170  -17.1330 O   0  0  0  0  0  0  0  0  0  0  0  0
   40.4680   26.8280  -14.8710 C   0  0  0  0  0  0  0  0  0  0  0  0
   41.2690   26.7950  -13.7140 C   0  0  0  0  0  0  0  0  0  0  0  0
   42.5670   26.2340  -13.7210 N   0  0  0  0  0  0  0  0  0  0  0  0
   42.7590   25.2310  -14.7810 C   0  0  0  0  0  0  0  0  0  0  0  0
   44.0900   24.5170  -14.5520 C   0  0  0  0  0  0  0  0  0  0  0  0
   45.2450   25.5160  -14.4840 C   0  0  0  0  0  0  0  0  0  0  0  0
   44.9660   26.6050  -13.4500 C   0  0  0  0  0  0  0  0  0  0  0  0
   43.6110   27.2700  -13.6940 C   0  0  0  0  0  0  0  0  0  0  0  0
   41.2515   27.1924   -9.1123 H   0  0  0  0  0  0  0  0  0  0  0  0
   39.7599   27.4812  -10.0705 H   0  0  0  0  0  0  0  0  0  0  0  0
   40.5269   25.8570  -10.0705 H   0  0  0  0  0  0  0  0  0  0  0  0
   41.9710   28.3471  -11.0642 H   0  0  0  0  0  0  0  0  0  0  0  0
   42.3685   26.5978  -11.3470 H   0  0  0  0  0  0  0  0  0  0  0  0
   39.0726   28.3283  -11.5779 H   0  0  0  0  0  0  0  0  0  0  0  0
   37.6841   28.3600  -13.6372 H   0  0  0  0  0  0  0  0  0  0  0  0
   35.6275   30.3204  -16.1762 H   0  0  0  0  0  0  0  0  0  0  0  0
   34.0449   30.7142  -18.0663 H   0  0  0  0  0  0  0  0  0  0  0  0
   34.0998   29.2312  -20.0738 H   0  0  0  0  0  0  0  0  0  0  0  0
   35.8900   27.6130  -21.2640 H   0  0  0  0  0  0  0  0  0  0  0  0
   39.2740   24.7810  -16.5630 H   0  0  0  0  0  0  0  0  0  0  0  0
   40.8656   26.4128  -15.8088 H   0  0  0  0  0  0  0  0  0  0  0  0
   41.9378   24.4998  -14.7505 H   0  0  0  0  0  0  0  0  0  0  0  0
   42.7653   25.7245  -15.7641 H   0  0  0  0  0  0  0  0  0  0  0  0
   44.0406   23.9597  -13.6049 H   0  0  0  0  0  0  0  0  0  0  0  0
   44.2690   23.8323  -15.3941 H   0  0  0  0  0  0  0  0  0  0  0  0
   46.1660   24.9828  -14.2055 H   0  0  0  0  0  0  0  0  0  0  0  0
   45.3575   25.9896  -15.4704 H   0  0  0  0  0  0  0  0  0  0  0  0
   44.9685   26.1549  -12.4463 H   0  0  0  0  0  0  0  0  0  0  0  0
   45.7493   27.3726  -13.5348 H   0  0  0  0  0  0  0  0  0  0  0  0
   43.4001   27.9851  -12.8852 H   0  0  0  0  0  0  0  0  0  0  0  0
   43.6276   27.8060  -14.6545 H   0  0  0  0  0  0  0  0  0  0  0  0
  1  2  1  0
  2  3  1  0
  3  4  2  0
  4  5  1  0
  5  6  2  0
  6  7  1  0
  7  8  1  0
  8  9  1  0
  9 10  2  0
 10 11  1  0
 11 12  2  0
 12 13  1  0
 13 14  1  0
 13 15  2  0
 15 16  1  0
 16 17  2  0
 16 18  1  0
 18 19  1  0
  6 20  1  0
 20 21  2  0
 21 22  1  0
 22 23  1  0
 23 24  1  0
 24 25  1  0
 25 26  1  0
 26 27  1  0
 21  3  1  0
 27 22  1  0
 18  7  2  0
 15  9  1  0
  1 28  1  0
  1 29  1  0
  1 30  1  0
  2 31  1  0
  2 32  1  0
  4 33  1  0
  5 34  1  0
 10 35  1  0
 11 36  1  0
 12 37  1  0
 14 38  1  0
 19 39  1  0
 20 40  1  0
 23 41  1  0
 23 42  1  0
 24 43  1  0
 24 44  1  0
 25 45  1  0
 25 46  1  0
 26 47  1  0
 26 48  1  0
 27 49  1  0
 27 50  1  0
M  END
>  <meeko>  (2) 
{"is_sidechain": [false], "free_energy": -3.8, "intermolecular_energy": -4.118, "internal_energy": -0.108}

$$$$
cand_020_out
     RDKit          3D

 50 53  0  0  0  0  0  0  0  0999 V2000
   44.4270   24.7440  -10.3890 C   0  0  0  0  0  0  0  0  0  0  0  0
   44.1310   26.2180  -10.6220 C   0  0  0  0  0  0  0  0  0  0  0  0
   43.1610   26.4290  -11.7640 C   0  0  0  0  0  0  0  0  0  0  0  0
   41.8180   26.7080  -11.4690 C   0  0  0  0  0  0  0  0  0  0  0  0
   40.8840   26.8910  -12.4900 C   0  0  0  0  0  0  0  0  0  0  0  0
   41.2680   26.7930  -13.8320 C   0  0  0  0  0  0  0  0  0  0  0  0
   40.2710   27.0200  -14.9000 C   0  0  0  0  0  0  0  0  0  0  0  0
   39.2740   27.9150  -14.5260 O   0  0  0  0  0  0  0  0  0  0  0  0
   38.2830   28.2160  -15.4240 C   0  0  0  0  0  0  0  0  0  0  0  0
   37.3110   29.1300  -15.0120 C   0  0  0  0  0  0  0  0  0  0  0  0
   36.2720   29.4790  -15.8780 C   0  0  0  0  0  0  0  0  0  0  0  0
   36.2040   28.9170  -17.1540 C   0  0  0  0  0  0  0  0  0  0  0  0
   37.1750   28.0060  -17.5620 C   0  0  0  0  0  0  0  0  0  0  0  0
   37.0480   27.4920  -18.8230 O   0  0  0  0  0  0  0  0  0  0  0  0
   38.2150   27.6560  -16.6960 C   0  0  0  0  0  0  0  0  0  0  0  0
   39.2550   26.7030  -17.0850 C   0  0  0  0  0  0  0  0  0  0  0  0
   39.2600   26.1610  -18.1890 O   0  0  0  0  0  0  0  0  0  0  0  0
   40.3180   26.4070  -16.0970 C   0  0  0  0  0  0  0  0  0  0  0  0
   41.2870   25.4950  -16.4720 O   0  0  0  0  0  0  0  0  0  0  0  0
   42.6120   26.5180  -14.1250 C   0  0  0  0  0  0  0  0  0  0  0  0
   43.5670   26.3200  -13.1090 C   0  0  0  0  0  0  0  0  0  0  0  0
   44.9200   26.0320  -13.4040 N   0  0  0  0  0  0  0  0  0  0  0  0
   45.1080   24.7160  -14.0340 C   0  0  0  0  0  0  0  0  0  0  0  0
   46.6030   24.4010  -14.0850 C   0  0  0  0  0  0  0  0  0  0  0  0
   47.3740   25.5040  -14.8080 C   0  0  0  0  0  0  0  0  0  0  0  0
   47.0730   26.8720  -14.1980 C   0  0  0  0  0  0  0  0  0  0  0  0
   45.5670   27.1340  -14.1340 C   0  0  0  0  0  0  0  0  0  0  0  0
   44.4671   24.5445   -9.3080 H   0  0  0  0  0  0  0  0  0  0  0  0
   43.6334   24.1341  -10.8453 H   0  0  0  0  0  0  0  0  0  0  0  0
   45.3945   24.4877  -10.8453 H   0  0  0  0  0  0  0  0  0  0  0  0
   43.6968   26.6421   -9.7046 H   0  0  0  0  0  0  0  0  0  0  0  0
   45.0761   26.7166  -10.8831 H   0  0  0  0  0  0  0  0  0  0  0  0
   41.4970   26.7835  -10.4196 H   0  0  0  0  0  0  0  0  0  0  0  0
   39.8369   27.1142  -12.2375 H   0  0  0  0  0  0  0  0  0  0  0  0
   37.3634   29.5744  -14.0071 H   0  0  0  0  0  0  0  0  0  0  0  0
   35.5056   30.1984  -15.5537 H   0  0  0  0  0  0  0  0  0  0  0  0
   35.3857   29.1930  -17.8353 H   0  0  0  0  0  0  0  0  0  0  0  0
   37.0600   26.5640  -18.9550 H   0  0  0  0  0  0  0  0  0  0  0  0
   41.9720   25.2660  -15.8750 H   0  0  0  0  0  0  0  0  0  0  0  0
   42.9285   26.4553  -15.1766 H   0  0  0  0  0  0  0  0  0  0  0  0
   44.5883   23.9465  -13.4442 H   0  0  0  0  0  0  0  0  0  0  0  0
   44.6945   24.7280  -15.0532 H   0  0  0  0  0  0  0  0  0  0  0  0
   46.9859   24.3093  -13.0579 H   0  0  0  0  0  0  0  0  0  0  0  0
   46.7426   23.4591  -14.6357 H   0  0  0  0  0  0  0  0  0  0  0  0
   48.4523   25.3027  -14.7255 H   0  0  0  0  0  0  0  0  0  0  0  0
   47.0638   25.5147  -15.8633 H   0  0  0  0  0  0  0  0  0  0  0  0
   47.4865   26.9087  -13.1793 H   0  0  0  0  0  0  0  0  0  0  0  0
   47.5325   27.6436  -14.8332 H   0  0  0  0  0  0  0  0  0  0  0  0
   45.3796   28.0833  -13.6107 H   0  0  0  0  0  0  0  0  0  0  0  0
   45.1568   27.1965  -15.1528 H   0  0  0  0  0  0  0  0  0  0  0  0
  1  2  1  0
  2  3  1  0
  3  4  2  0
  4  5  1  0
  5  6  2  0
  6  7  1  0
  7  8  1  0
  8  9  1  0
  9 10  2  0
 10 11  1  0
 11 12  2  0
 12 13  1  0
 13 14  1  0
 13 15  2  0
 15 16  1  0
 16 17  2  0
 16 18  1  0
 18 19  1  0
  6 20  1  0
 20 21  2  0
 21 22  1  0
 22 23  1  0
 23 24  1  0
 24 25  1  0
 25 26  1  0
 26 27  1  0
 21  3  1  0
 27 22  1  0
 18  7  2  0
 15  9  1  0
  1 28  1  0
  1 29  1  0
  1 30  1  0
  2 31  1  0
  2 32  1  0
  4 33  1  0
  5 34  1  0
 10 35  1  0
 11 36  1  0
 12 37  1  0
 14 38  1  0
 19 39  1  0
 20 40  1  0
 23 41  1  0
 23 42  1  0
 24 43  1  0
 24 44  1  0
 25 45  1  0
 25 46  1  0
 26 47  1  0
 26 48  1  0
 27 49  1  0
 27 50  1  0
M  END
>  <meeko>  (3) 
{"is_sidechain": [false], "free_energy": -3.459, "intermolecular_energy": -3.389, "internal_energy": -0.417}

$$$$
cand_020_out
     RDKit          3D

 50 53  0  0  0  0  0  0  0  0999 V2000
   44.3300   24.5210  -10.4710 C   0  0  0  0  0  0  0  0  0  0  0  0
   44.4520   25.9680  -10.9250 C   0  0  0  0  0  0  0  0  0  0  0  0
   43.3110   26.3790  -11.8300 C   0  0  0  0  0  0  0  0  0  0  0  0
   42.0620   26.6620  -11.2580 C   0  0  0  0  0  0  0  0  0  0  0  0
   40.9750   27.0260  -12.0550 C   0  0  0  0  0  0  0  0  0  0  0  0
   41.1090   27.1090  -13.4450 C   0  0  0  0  0  0  0  0  0  0  0  0
   39.9550   27.5250  -14.2720 C   0  0  0  0  0  0  0  0  0  0  0  0
   39.9050   26.8690  -15.4970 O   0  0  0  0  0  0  0  0  0  0  0  0
   38.8830   27.1610  -16.3630 C   0  0  0  0  0  0  0  0  0  0  0  0
   38.8640   26.4690  -17.5750 C   0  0  0  0  0  0  0  0  0  0  0  0
   37.8520   26.7200  -18.5040 C   0  0  0  0  0  0  0  0  0  0  0  0
   36.8600   27.6620  -18.2230 C   0  0  0  0  0  0  0  0  0  0  0  0
   36.8820   28.3510  -17.0130 C   0  0  0  0  0  0  0  0  0  0  0  0
   35.8820   29.2600  -16.8010 O   0  0  0  0  0  0  0  0  0  0  0  0
   37.8950   28.0990  -16.0830 C   0  0  0  0  0  0  0  0  0  0  0  0
   37.9550   28.8010  -14.8000 C   0  0  0  0  0  0  0  0  0  0  0  0
   37.1230   29.6480  -14.4830 O   0  0  0  0  0  0  0  0  0  0  0  0
   39.0640   28.4560  -13.8810 C   0  0  0  0  0  0  0  0  0  0  0  0
   39.1170   29.1340  -12.6780 O   0  0  0  0  0  0  0  0  0  0  0  0
   42.3600   26.8280  -14.0150 C   0  0  0  0  0  0  0  0  0  0  0  0
   43.4650   26.4500  -13.2290 C   0  0  0  0  0  0  0  0  0  0  0  0
   44.7230   26.1570  -13.8040 N   0  0  0  0  0  0  0  0  0  0  0  0
   45.7900   27.0690  -13.3610 C   0  0  0  0  0  0  0  0  0  0  0  0
   47.0340   26.8270  -14.2140 C   0  0  0  0  0  0  0  0  0  0  0  0
   47.4650   25.3610  -14.1570 C   0  0  0  0  0  0  0  0  0  0  0  0
   46.3040   24.4360  -14.5190 C   0  0  0  0  0  0  0  0  0  0  0  0
   45.0690   24.7330  -13.6660 C   0  0  0  0  0  0  0  0  0  0  0  0
   44.3266   24.4807   -9.3717 H   0  0  0  0  0  0  0  0  0  0  0  0
   43.3926   24.0935  -10.8565 H   0  0  0  0  0  0  0  0  0  0  0  0
   45.1826   23.9426  -10.8565 H   0  0  0  0  0  0  0  0  0  0  0  0
   44.4535   26.6190  -10.0383 H   0  0  0  0  0  0  0  0  0  0  0  0
   45.3881   26.0665  -11.4942 H   0  0  0  0  0  0  0  0  0  0  0  0
   41.9372   26.5963  -10.1671 H   0  0  0  0  0  0  0  0  0  0  0  0
   40.0053   27.2493  -11.5861 H   0  0  0  0  0  0  0  0  0  0  0  0
   39.6449   25.7271  -17.7981 H   0  0  0  0  0  0  0  0  0  0  0  0
   37.8362   26.1746  -19.4591 H   0  0  0  0  0  0  0  0  0  0  0  0
   36.0634   27.8592  -18.9555 H   0  0  0  0  0  0  0  0  0  0  0  0
   35.5710   29.7880  -17.5100 H   0  0  0  0  0  0  0  0  0  0  0  0
   38.7700   28.7400  -11.9020 H   0  0  0  0  0  0  0  0  0  0  0  0
   42.4805   26.9052  -15.1056 H   0  0  0  0  0  0  0  0  0  0  0  0
   45.4580   28.1110  -13.4796 H   0  0  0  0  0  0  0  0  0  0  0  0
   46.0226   26.8837  -12.3020 H   0  0  0  0  0  0  0  0  0  0  0  0
   46.8119   27.0957  -15.2573 H   0  0  0  0  0  0  0  0  0  0  0  0
   47.8530   27.4471  -13.8206 H   0  0  0  0  0  0  0  0  0  0  0  0
   48.2887   25.2000  -14.8680 H   0  0  0  0  0  0  0  0  0  0  0  0
   47.7911   25.1305  -13.1320 H   0  0  0  0  0  0  0  0  0  0  0  0
   46.0496   24.5787  -15.5796 H   0  0  0  0  0  0  0  0  0  0  0  0
   46.6152   23.3981  -14.3294 H   0  0  0  0  0  0  0  0  0  0  0  0
   44.2267   24.1139  -14.0083 H   0  0  0  0  0  0  0  0  0  0  0  0
   45.2812   24.5024  -12.6116 H   0  0  0  0  0  0  0  0  0  0  0  0
  1  2  1  0
  2  3  1  0
  3  4  2  0
  4  5  1  0
  5  6  2  0
  6  7  1  0
  7  8  1  0
  8  9  1  0
  9 10  2  0
 10 11  1  0
 11 12  2  0
 12 13  1  0
 13 14  1  0
 13 15  2  0
 15 16  1  0
 16 17  2  0
 16 18  1  0
 18 19  1  0
  6 20  1  0
 20 21  2  0
 21 22  1  0
 22 23  1  0
 23 24  1  0
 24 25  1  0
 25 26  1  0
 26 27  1  0
 21  3  1  0
 27 22  1  0
 18  7  2  0
 15  9  1  0
  1 28  1  0
  1 29  1  0
  1 30  1  0
  2 31  1  0
  2 32  1  0
  4 33  1  0
  5 34  1  0
 10 35  1  0
 11 36  1  0
 12 37  1  0
 14 38  1  0
 19 39  1  0
 20 40  1  0
 23 41  1  0
 23 42  1  0
 24 43  1  0
 24 44  1  0
 25 45  1  0
 25 46  1  0
 26 47  1  0
 26 48  1  0
 27 49  1  0
 27 50  1  0
M  END
>  <meeko>  (4) 
{"is_sidechain": [false], "free_energy": -2.84, "intermolecular_energy": -3.72, "internal_energy": 0.678}

$$$$
cand_020_out
     RDKit          3D

 50 53  0  0  0  0  0  0  0  0999 V2000
   47.2710   23.9940  -11.7870 C   0  0  0  0  0  0  0  0  0  0  0  0
   47.1040   24.0380  -13.2980 C   0  0  0  0  0  0  0  0  0  0  0  0
   45.7900   24.6650  -13.7080 C   0  0  0  0  0  0  0  0  0  0  0  0
   44.6380   23.8640  -13.7420 C   0  0  0  0  0  0  0  0  0  0  0  0
   43.4080   24.3950  -14.1320 C   0  0  0  0  0  0  0  0  0  0  0  0
   43.2990   25.7390  -14.5050 C   0  0  0  0  0  0  0  0  0  0  0  0
   41.9810   26.2920  -14.8860 C   0  0  0  0  0  0  0  0  0  0  0  0
   41.3970   27.0420  -13.8710 O   0  0  0  0  0  0  0  0  0  0  0  0
   40.1710   27.6130  -14.0920 C   0  0  0  0  0  0  0  0  0  0  0  0
   39.6290   28.3690  -13.0510 C   0  0  0  0  0  0  0  0  0  0  0  0
   38.3810   28.9780  -13.2100 C   0  0  0  0  0  0  0  0  0  0  0  0
   37.6760   28.8310  -14.4060 C   0  0  0  0  0  0  0  0  0  0  0  0
   38.2200   28.0760  -15.4420 C   0  0  0  0  0  0  0  0  0  0  0  0
   37.4770   27.9720  -16.5860 O   0  0  0  0  0  0  0  0  0  0  0  0
   39.4680   27.4670  -15.2840 C   0  0  0  0  0  0  0  0  0  0  0  0
   40.0750   26.6660  -16.3470 C   0  0  0  0  0  0  0  0  0  0  0  0
   39.5140   26.4850  -17.4260 O   0  0  0  0  0  0  0  0  0  0  0  0
   41.4060   26.0700  -16.0830 C   0  0  0  0  0  0  0  0  0  0  0  0
   41.9630   25.3050  -17.0900 O   0  0  0  0  0  0  0  0  0  0  0  0
   44.4510   26.5390  -14.4680 C   0  0  0  0  0  0  0  0  0  0  0  0
   45.7030   26.0200  -14.0860 C   0  0  0  0  0  0  0  0  0  0  0  0
   46.8660   26.8240  -14.0580 N   0  0  0  0  0  0  0  0  0  0  0  0
   47.3810   27.0520  -12.6990 C   0  0  0  0  0  0  0  0  0  0  0  0
   48.4750   28.1170  -12.7560 C   0  0  0  0  0  0  0  0  0  0  0  0
   49.5800   27.7190  -13.7340 C   0  0  0  0  0  0  0  0  0  0  0  0
   49.0000   27.3850  -15.1080 C   0  0  0  0  0  0  0  0  0  0  0  0
   47.8860   26.3410  -15.0030 C   0  0  0  0  0  0  0  0  0  0  0  0
   46.3149   24.2459  -11.3049 H   0  0  0  0  0  0  0  0  0  0  0  0
   47.5806   22.9836  -11.4816 H   0  0  0  0  0  0  0  0  0  0  0  0
   48.0383   24.7206  -11.4816 H   0  0  0  0  0  0  0  0  0  0  0  0
   47.9274   24.6266  -13.7287 H   0  0  0  0  0  0  0  0  0  0  0  0
   47.1157   23.0029  -13.6700 H   0  0  0  0  0  0  0  0  0  0  0  0
   44.7057   22.8036  -13.4574 H   0  0  0  0  0  0  0  0  0  0  0  0
   42.5162   23.7512  -14.1463 H   0  0  0  0  0  0  0  0  0  0  0  0
   40.1829   28.4851  -12.1077 H   0  0  0  0  0  0  0  0  0  0  0  0
   37.9533   29.5746  -12.3908 H   0  0  0  0  0  0  0  0  0  0  0  0
   36.6936   29.3102  -14.5297 H   0  0  0  0  0  0  0  0  0  0  0  0
   37.0530   27.1630  -16.7970 H   0  0  0  0  0  0  0  0  0  0  0  0
   41.7630   24.3920  -17.1500 H   0  0  0  0  0  0  0  0  0  0  0  0
   44.3740   27.6008  -14.7450 H   0  0  0  0  0  0  0  0  0  0  0  0
   46.5642   27.3963  -12.0476 H   0  0  0  0  0  0  0  0  0  0  0  0
   47.7934   26.1157  -12.2950 H   0  0  0  0  0  0  0  0  0  0  0  0
   48.0323   29.0696  -13.0824 H   0  0  0  0  0  0  0  0  0  0  0  0
   48.9159   28.2189  -11.7534 H   0  0  0  0  0  0  0  0  0  0  0  0
   50.2885   28.5543  -13.8358 H   0  0  0  0  0  0  0  0  0  0  0  0
   50.0905   26.8268  -13.3424 H   0  0  0  0  0  0  0  0  0  0  0  0
   48.5904   28.3021  -15.5565 H   0  0  0  0  0  0  0  0  0  0  0  0
   49.8051   26.9717  -15.7333 H   0  0  0  0  0  0  0  0  0  0  0  0
   47.4296   26.1875  -15.9920 H   0  0  0  0  0  0  0  0  0  0  0  0
   48.3021   25.3873  -14.6463 H   0  0  0  0  0  0  0  0  0  0  0  0
  1  2  1  0
  2  3  1  0
  3  4  2  0
  4  5  1  0
  5  6  2  0
  6  7  1  0
  7  8  1  0
  8  9  1  0
  9 10  2  0
 10 11  1  0
 11 12  2  0
 12 13  1  0
 13 14  1  0
 13 15  2  0
 15 16  1  0
 16 17  2  0
 16 18  1  0
 18 19  1  0
  6 20  1  0
 20 21  2  0
 21 22  1  0
 22 23  1  0
 23 24  1  0
 24 25  1  0
 25 26  1  0
 26 27  1  0
 21  3  1  0
 27 22  1  0
 18  7  2  0
 15  9  1  0
  1 28  1  0
  1 29  1  0
  1 30  1  0
  2 31  1  0
  2 32  1  0
  4 33  1  0
  5 34  1  0
 10 35  1  0
 11 36  1  0
 12 37  1  0
 14 38  1  0
 19 39  1  0
 20 40  1  0
 23 41  1  0
 23 42  1  0
 24 43  1  0
 24 44  1  0
 25 45  1  0
 25 46  1  0
 26 47  1  0
 26 48  1  0
 27 49  1  0
 27 50  1  0
M  END
>  <meeko>  (5) 
{"is_sidechain": [false], "free_energy": -1.811, "intermolecular_energy": -2.114, "internal_energy": 0.341}

$$$$
