cand_045_out
     RDKit          3D

 35 37  0  0  0  0  0  0  0  0999 V2000
   45.9470   24.2650  -13.6620 C   0  0  0  0  0  0  0  0  0  0  0  0
   44.6520   25.0050  -13.8520 C   0  0  0  0  0  0  0  0  0  0  0  0
   43.5920   24.3730  -14.5170 C   0  0  0  0  0  0  0  0  0  0  0  0
   42.3730   25.0290  -14.7130 C   0  0  0  0  0  0  0  0  0  0  0  0
   42.1840   26.3370  -14.2560 C   0  0  0  0  0  0  0  0  0  0  0  0
   40.8970   27.0450  -14.4270 C   0  0  0  0  0  0  0  0  0  0  0  0
   40.3540   26.8790  -15.6960 O   0  0  0  0  0  0  0  0  0  0  0  0
   39.1560   27.4780  -15.9890 C   0  0  0  0  0  0  0  0  0  0  0  0
   38.6530   27.2910  -17.2770 C   0  0  0  0  0  0  0  0  0  0  0  0
   37.4370   27.8730  -17.6420 C   0  0  0  0  0  0  0  0  0  0  0  0
   36.7250   28.6420  -16.7190 C   0  0  0  0  0  0  0  0  0  0  0  0
   37.2300   28.8270  -15.4330 C   0  0  0  0  0  0  0  0  0  0  0  0
   36.4810   29.5900  -14.5790 O   0  0  0  0  0  0  0  0  0  0  0  0
   38.4460   28.2430  -15.0690 C   0  0  0  0  0  0  0  0  0  0  0  0
   39.0110   28.4110  -13.7300 C   0  0  0  0  0  0  0  0  0  0  0  0
   38.4410   29.0680  -12.8610 O   0  0  0  0  0  0  0  0  0  0  0  0
   40.3090   27.7550  -13.4470 C   0  0  0  0  0  0  0  0  0  0  0  0
   40.8250   27.9070  -12.1720 O   0  0  0  0  0  0  0  0  0  0  0  0
   43.2420   26.9650  -13.5800 C   0  0  0  0  0  0  0  0  0  0  0  0
   44.4750   26.3180  -13.3720 C   0  0  0  0  0  0  0  0  0  0  0  0
   45.5780   27.0480  -12.6470 C   0  0  0  0  0  0  0  0  0  0  0  0
   46.8100   26.8740  -13.2070 F   0  0  0  0  0  0  0  0  0  0  0  0
   46.1490   24.1496  -12.5869 H   0  0  0  0  0  0  0  0  0  0  0  0
   45.8741   23.2722  -14.1301 H   0  0  0  0  0  0  0  0  0  0  0  0
   46.7653   24.8318  -14.1301 H   0  0  0  0  0  0  0  0  0  0  0  0
   43.7212   23.3462  -14.8899 H   0  0  0  0  0  0  0  0  0  0  0  0
   41.5536   24.5105  -15.2324 H   0  0  0  0  0  0  0  0  0  0  0  0
   39.2138   26.6856  -18.0044 H   0  0  0  0  0  0  0  0  0  0  0  0
   37.0398   27.7256  -18.6572 H   0  0  0  0  0  0  0  0  0  0  0  0
   35.7674   29.1009  -17.0063 H   0  0  0  0  0  0  0  0  0  0  0  0
   35.5570   29.4520  -14.5170 H   0  0  0  0  0  0  0  0  0  0  0  0
   40.2500   27.9200  -11.4330 H   0  0  0  0  0  0  0  0  0  0  0  0
   43.1041   27.9892  -13.2030 H   0  0  0  0  0  0  0  0  0  0  0  0
   45.3437   28.1228  -12.6498 H   0  0  0  0  0  0  0  0  0  0  0  0
   45.6250   26.6319  -11.6298 H   0  0  0  0  0  0  0  0  0  0  0  0
  1  2  1  0
  2  3  2  0
  3  4  1  0
  4  5  2  0
  5  6  1  0
  6  7  1  0
  7  8  1  0
  8  9  2  0
  9 10  1  0
 10 11  2  0
 11 12  1  0
 12 13  1  0
 12 14  2  0
 14 15  1  0
 15 16  2  0
 15 17  1  0
 17 18  1  0
  5 19  1  0
 19 20  2  0
 20 21  1  0
 21 22  1  0
 20  2  1  0
 17  6  2  0
 14  8  1  0
  1 23  1  0
  1 24  1  0
  1 25  1  0
  3 26  1  0
  4 27  1  0
  9 28  1  0
 10 29  1  0
 11 30  1  0
 13 31  1  0
 18 32  1  0
 19 33  1  0
 21 34  1  0
 21 35  1  0
M  END
>  <meeko>  (1) 
{"is_sidechain": [false], "free_energy": -8.072, "intermolecular_energy": -9.487, "internal_energy": 0.267}

$$$$
cand_045_out
     RDKit          3D

 35 37  0  0  0  0  0  0  0  0999 V2000
   45.4790   24.6400  -13.0640 C   0  0  0  0  0  0  0  0  0  0  0  0
   44.2390   25.1770  -13.7250 C   0  0  0  0  0  0  0  0  0  0  0  0
   43.4970   24.3410  -14.5700 C   0  0  0  0  0  0  0  0  0  0  0  0
   42.3390   24.8050  -15.2030 C   0  0  0  0  0  0  0  0  0  0  0  0
   41.8980   26.1180  -15.0130 C   0  0  0  0  0  0  0  0  0  0  0  0
   40.6640   26.6260  -15.6490 C   0  0  0  0  0  0  0  0  0  0  0  0
   39.9110   27.4310  -14.8020 O   0  0  0  0  0  0  0  0  0  0  0  0
   38.7420   27.9750  -15.2680 C   0  0  0  0  0  0  0  0  0  0  0  0
   38.0150   28.7700  -14.3800 C   0  0  0  0  0  0  0  0  0  0  0  0
   36.8150   29.3550  -14.7910 C   0  0  0  0  0  0  0  0  0  0  0  0
   36.3420   29.1450  -16.0880 C   0  0  0  0  0  0  0  0  0  0  0  0
   37.0700   28.3510  -16.9720 C   0  0  0  0  0  0  0  0  0  0  0  0
   36.5510   28.1880  -18.2270 O   0  0  0  0  0  0  0  0  0  0  0  0
   38.2710   27.7670  -16.5600 C   0  0  0  0  0  0  0  0  0  0  0  0
   39.0660   26.9280  -17.4560 C   0  0  0  0  0  0  0  0  0  0  0  0
   38.7200   26.7010  -18.6150 O   0  0  0  0  0  0  0  0  0  0  0  0
   40.3220   26.3510  -16.9220 C   0  0  0  0  0  0  0  0  0  0  0  0
   41.0740   25.5730  -17.7830 O   0  0  0  0  0  0  0  0  0  0  0  0
   42.6360   26.9510  -14.1570 C   0  0  0  0  0  0  0  0  0  0  0  0
   43.8020   26.5000  -13.5110 C   0  0  0  0  0  0  0  0  0  0  0  0
   44.5590   27.4440  -12.6090 C   0  0  0  0  0  0  0  0  0  0  0  0
   44.2760   28.7600  -12.8330 F   0  0  0  0  0  0  0  0  0  0  0  0
   45.3631   24.6902  -11.9713 H   0  0  0  0  0  0  0  0  0  0  0  0
   45.6334   23.5944  -13.3687 H   0  0  0  0  0  0  0  0  0  0  0  0
   46.3473   25.2427  -13.3687 H   0  0  0  0  0  0  0  0  0  0  0  0
   43.8295   23.3060  -14.7378 H   0  0  0  0  0  0  0  0  0  0  0  0
   41.7690   24.1292  -15.8576 H   0  0  0  0  0  0  0  0  0  0  0  0
   38.3867   28.9355  -13.3580 H   0  0  0  0  0  0  0  0  0  0  0  0
   36.2419   29.9819  -14.0921 H   0  0  0  0  0  0  0  0  0  0  0  0
   35.3967   29.6054  -16.4112 H   0  0  0  0  0  0  0  0  0  0  0  0
   35.8320   27.6030  -18.3630 H   0  0  0  0  0  0  0  0  0  0  0  0
   41.0810   25.7640  -18.7000 H   0  0  0  0  0  0  0  0  0  0  0  0
   42.2940   27.9826  -13.9870 H   0  0  0  0  0  0  0  0  0  0  0  0
   44.3046   27.2065  -11.5655 H   0  0  0  0  0  0  0  0  0  0  0  0
   45.6291   27.3040  -12.8217 H   0  0  0  0  0  0  0  0  0  0  0  0
  1  2  1  0
  2  3  2  0
  3  4  1  0
  4  5  2  0
  5  6  1  0
  6  7  1  0
  7  8  1  0
  8  9  2  0
  9 10  1  0
 10 11  2  0
 11 12  1  0
 12 13  1  0
 12 14  2  0
 14 15  1  0
 15 16  2  0
 15 17  1  0
 17 18  1  0
  5 19  1  0
 19 20  2  0
 20 21  1  0
 21 22  1  0
 20  2  1  0
 17  6  2  0
 14  8  1  0
  1 23  1  0
  1 24  1  0
  1 25  1  0
  3 26  1  0
  4 27  1  0
  9 28  1  0
 10 29  1  0
 11 30  1  0
 13 31  1  0
 18 32  1  0
 19 33  1  0
 21 34  1  0
 21 35  1  0
M  END
>  <meeko>  (2) 
{"is_sidechain": [false], "free_energy": -7.874, "intermolecular_energy": -8.901, "internal_energy": -0.087}

$$$$
cand_045_out
     RDKit          3D

 35 37  0  0  0  0  0  0  0  0999 V2000
   35.6550   29.2960  -17.6490 C   0  0  0  0  0  0  0  0  0  0  0  0
   36.8090   28.8110  -16.8140 C   0  0  0  0  0  0  0  0  0  0  0  0
   37.1620   29.5200  -15.6570 C   0  0  0  0  0  0  0  0  0  0  0  0
   38.2290   29.1000  -14.8560 C   0  0  0  0  0  0  0  0  0  0  0  0
   38.9740   27.9660  -15.1950 C   0  0  0  0  0  0  0  0  0  0  0  0
   40.0900   27.4860  -14.3520 C   0  0  0  0  0  0  0  0  0  0  0  0
   41.0860   26.8510  -15.0850 O   0  0  0  0  0  0  0  0  0  0  0  0
   42.1850   26.3620  -14.4270 C   0  0  0  0  0  0  0  0  0  0  0  0
   43.1550   25.7250  -15.2020 C   0  0  0  0  0  0  0  0  0  0  0  0
   44.3000   25.2040  -14.5950 C   0  0  0  0  0  0  0  0  0  0  0  0
   44.4740   25.3190  -13.2140 C   0  0  0  0  0  0  0  0  0  0  0  0
   43.5040   25.9560  -12.4440 C   0  0  0  0  0  0  0  0  0  0  0  0
   43.7380   26.0360  -11.0980 O   0  0  0  0  0  0  0  0  0  0  0  0
   42.3590   26.4780  -13.0520 C   0  0  0  0  0  0  0  0  0  0  0  0
   41.3170   27.1550  -12.2800 C   0  0  0  0  0  0  0  0  0  0  0  0
   41.4000   27.3020  -11.0620 O   0  0  0  0  0  0  0  0  0  0  0  0
   40.1400   27.6680  -13.0190 C   0  0  0  0  0  0  0  0  0  0  0  0
   39.1690   28.3200  -12.2820 O   0  0  0  0  0  0  0  0  0  0  0  0
   38.6120   27.2520  -16.3480 C   0  0  0  0  0  0  0  0  0  0  0  0
   37.5400   27.6590  -17.1640 C   0  0  0  0  0  0  0  0  0  0  0  0
   37.2040   26.8550  -18.3950 C   0  0  0  0  0  0  0  0  0  0  0  0
   38.2950   26.5040  -19.1350 F   0  0  0  0  0  0  0  0  0  0  0  0
   34.8432   29.6372  -16.9897 H   0  0  0  0  0  0  0  0  0  0  0  0
   35.9871   30.1307  -18.2839 H   0  0  0  0  0  0  0  0  0  0  0  0
   35.2911   28.4747  -18.2839 H   0  0  0  0  0  0  0  0  0  0  0  0
   36.5925   30.4181  -15.3756 H   0  0  0  0  0  0  0  0  0  0  0  0
   38.4850   29.6679  -13.9494 H   0  0  0  0  0  0  0  0  0  0  0  0
   43.0181   25.6333  -16.2896 H   0  0  0  0  0  0  0  0  0  0  0  0
   45.0656   24.7026  -15.2053 H   0  0  0  0  0  0  0  0  0  0  0  0
   45.3750   24.9074  -12.7357 H   0  0  0  0  0  0  0  0  0  0  0  0
   43.1240   26.4730  -10.5410 H   0  0  0  0  0  0  0  0  0  0  0  0
   38.4830   28.7850  -12.7180 H   0  0  0  0  0  0  0  0  0  0  0  0
   39.1809   26.3510  -16.6209 H   0  0  0  0  0  0  0  0  0  0  0  0
   36.6880   25.9362  -18.0796 H   0  0  0  0  0  0  0  0  0  0  0  0
   36.5739   27.4920  -19.0331 H   0  0  0  0  0  0  0  0  0  0  0  0
  1  2  1  0
  2  3  2  0
  3  4  1  0
  4  5  2  0
  5  6  1  0
  6  7  1  0
  7  8  1  0
  8  9  2  0
  9 10  1  0
 10 11  2  0
 11 12  1  0
 12 13  1  0
 12 14  2  0
 14 15  1  0
 15 16  2  0
 15 17  1  0
 17 18  1  0
  5 19  1  0
 19 20  2  0
 20 21  1  0
 21 22  1  0
 20  2  1  0
 17  6  2  0
 14  8  1  0
  1 23  1  0
  1 24  1  0
  1 25  1  0
  3 26  1  0
  4 27  1  0
  9 28  1  0
 10 29  1  0
 11 30  1  0
 13 31  1  0
 18 32  1  0
 19 33  1  0
 21 34  1  0
 21 35  1  0
M  END
>  <meeko>  (3) 
{"is_sidechain": [false], "free_energy": -7.367, "intermolecular_energy": -8.445, "internal_energy": 0.052}

$$$$
cand_045_out
     RDKit          3D

 35 37  0  0  0  0  0  0  0  0999 V2000
   36.4260   27.7780  -18.6040 C   0  0  0  0  0  0  0  0  0  0  0  0
   37.5010   27.5400  -17.5780 C   0  0  0  0  0  0  0  0  0  0  0  0
   38.5110   26.6060  -17.8480 C   0  0  0  0  0  0  0  0  0  0  0  0
   39.5260   26.3580  -16.9190 C   0  0  0  0  0  0  0  0  0  0  0  0
   39.5540   27.0310  -15.6940 C   0  0  0  0  0  0  0  0  0  0  0  0
   40.6300   26.8060  -14.7050 C   0  0  0  0  0  0  0  0  0  0  0  0
   41.7550   26.2050  -15.2580 O   0  0  0  0  0  0  0  0  0  0  0  0
   42.8330   25.9440  -14.4510 C   0  0  0  0  0  0  0  0  0  0  0  0
   43.9360   25.3320  -15.0470 C   0  0  0  0  0  0  0  0  0  0  0  0
   45.0670   25.0390  -14.2830 C   0  0  0  0  0  0  0  0  0  0  0  0
   45.0950   25.3560  -12.9230 C   0  0  0  0  0  0  0  0  0  0  0  0
   43.9920   25.9680  -12.3310 C   0  0  0  0  0  0  0  0  0  0  0  0
   44.0860   26.2530  -10.9960 O   0  0  0  0  0  0  0  0  0  0  0  0
   42.8600   26.2610  -13.0970 C   0  0  0  0  0  0  0  0  0  0  0  0
   41.6820   26.9030  -12.5150 C   0  0  0  0  0  0  0  0  0  0  0  0
   41.6310   27.2200  -11.3280 O   0  0  0  0  0  0  0  0  0  0  0  0
   40.5320   27.1670  -13.4120 C   0  0  0  0  0  0  0  0  0  0  0  0
   39.4300   27.7890  -12.8540 O   0  0  0  0  0  0  0  0  0  0  0  0
   38.5490   27.9740  -15.4290 C   0  0  0  0  0  0  0  0  0  0  0  0
   37.5210   28.2380  -16.3540 C   0  0  0  0  0  0  0  0  0  0  0  0
   36.4630   29.2570  -16.0100 C   0  0  0  0  0  0  0  0  0  0  0  0
   36.1180   29.2650  -14.6900 F   0  0  0  0  0  0  0  0  0  0  0  0
   35.4738   27.9888  -18.0952 H   0  0  0  0  0  0  0  0  0  0  0  0
   36.7034   28.6365  -19.2333 H   0  0  0  0  0  0  0  0  0  0  0  0
   36.3151   26.8827  -19.2333 H   0  0  0  0  0  0  0  0  0  0  0  0
   38.5048   26.0610  -18.8035 H   0  0  0  0  0  0  0  0  0  0  0  0
   40.3115   25.6249  -17.1547 H   0  0  0  0  0  0  0  0  0  0  0  0
   43.9145   25.0806  -16.1177 H   0  0  0  0  0  0  0  0  0  0  0  0
   45.9375   24.5577  -14.7528 H   0  0  0  0  0  0  0  0  0  0  0  0
   45.9856   25.1231  -12.3208 H   0  0  0  0  0  0  0  0  0  0  0  0
   44.1640   27.1420  -10.7120 H   0  0  0  0  0  0  0  0  0  0  0  0
   38.6910   27.2800  -12.5870 H   0  0  0  0  0  0  0  0  0  0  0  0
   38.5649   28.5206  -14.4746 H   0  0  0  0  0  0  0  0  0  0  0  0
   36.8423   30.2547  -16.2759 H   0  0  0  0  0  0  0  0  0  0  0  0
   35.5598   28.9866  -16.5767 H   0  0  0  0  0  0  0  0  0  0  0  0
  1  2  1  0
  2  3  2  0
  3  4  1  0
  4  5  2  0
  5  6  1  0
  6  7  1  0
  7  8  1  0
  8  9  2  0
  9 10  1  0
 10 11  2  0
 11 12  1  0
 12 13  1  0
 12 14  2  0
 14 15  1  0
 15 16  2  0
 15 17  1  0
 17 18  1  0
  5 19  1  0
 19 20  2  0
 20 21  1  0
 21 22  1  0
 20  2  1  0
 17  6  2  0
 14  8  1  0
  1 23  1  0
  1 24  1  0
  1 25  1  0
  3 26  1  0
  4 27  1  0
  9 28  1  0
 10 29  1  0
 11 30  1  0
 13 31  1  0
 18 32  1  0
 19 33  1  0
 21 34  1  0
 21 35  1  0
M  END
>  <meeko>  (4) 
{"is_sidechain": [false], "free_energy": -7.032, "intermolecular_energy": -8.215, "internal_energy": 0.217}

$$$$
cand_045_out
     RDKit          3D

 35 37  0  0  0  0  0  0  0  0999 V2000
   44.7970   25.9540  -11.6350 C   0  0  0  0  0  0  0  0  0  0  0  0
   43.6510   26.2200  -12.5720 C   0  0  0  0  0  0  0  0  0  0  0  0
   42.5150   26.8890  -12.0930 C   0  0  0  0  0  0  0  0  0  0  0  0
   41.4300   27.1530  -12.9330 C   0  0  0  0  0  0  0  0  0  0  0  0
   41.4480   26.7500  -14.2720 C   0  0  0  0  0  0  0  0  0  0  0  0
   40.3240   27.0390  -15.1890 C   0  0  0  0  0  0  0  0  0  0  0  0
   39.3770   27.8900  -14.6310 O   0  0  0  0  0  0  0  0  0  0  0  0
   38.2830   28.2460  -15.3760 C   0  0  0  0  0  0  0  0  0  0  0  0
   37.3540   29.0950  -14.7730 C   0  0  0  0  0  0  0  0  0  0  0  0
   36.2180   29.4970  -15.4770 C   0  0  0  0  0  0  0  0  0  0  0  0
   36.0100   29.0510  -16.7840 C   0  0  0  0  0  0  0  0  0  0  0  0
   36.9390   28.2040  -17.3840 C   0  0  0  0  0  0  0  0  0  0  0  0
   36.6740   27.8060  -18.6660 O   0  0  0  0  0  0  0  0  0  0  0  0
   38.0760   27.8020  -16.6790 C   0  0  0  0  0  0  0  0  0  0  0  0
   39.0770   26.9150  -17.2720 C   0  0  0  0  0  0  0  0  0  0  0  0
   38.9690   26.4850  -18.4190 O   0  0  0  0  0  0  0  0  0  0  0  0
   40.2450   26.5450  -16.4380 C   0  0  0  0  0  0  0  0  0  0  0  0
   41.1920   25.7190  -17.0150 O   0  0  0  0  0  0  0  0  0  0  0  0
   42.5900   26.0900  -14.7530 C   0  0  0  0  0  0  0  0  0  0  0  0
   43.6920   25.8180  -13.9220 C   0  0  0  0  0  0  0  0  0  0  0  0
   44.8880   25.0980  -14.4930 C   0  0  0  0  0  0  0  0  0  0  0  0
   45.2320   23.9730  -13.8030 F   0  0  0  0  0  0  0  0  0  0  0  0
   44.4470   26.0352  -10.5953 H   0  0  0  0  0  0  0  0  0  0  0  0
   45.1880   24.9412  -11.8122 H   0  0  0  0  0  0  0  0  0  0  0  0
   45.5941   26.6910  -11.8122 H   0  0  0  0  0  0  0  0  0  0  0  0
   42.4777   27.2102  -11.0416 H   0  0  0  0  0  0  0  0  0  0  0  0
   40.5519   27.6838  -12.5366 H   0  0  0  0  0  0  0  0  0  0  0  0
   37.5170   29.4471  -13.7437 H   0  0  0  0  0  0  0  0  0  0  0  0
   35.4855   30.1660  -15.0018 H   0  0  0  0  0  0  0  0  0  0  0  0
   35.1144   29.3679  -17.3385 H   0  0  0  0  0  0  0  0  0  0  0  0
   35.8070   27.8840  -19.0110 H   0  0  0  0  0  0  0  0  0  0  0  0
   41.6890   26.0180  -17.7510 H   0  0  0  0  0  0  0  0  0  0  0  0
   42.6239   25.7774  -15.8071 H   0  0  0  0  0  0  0  0  0  0  0  0
   44.6588   24.8126  -15.5303 H   0  0  0  0  0  0  0  0  0  0  0  0
   45.7411   25.7892  -14.4264 H   0  0  0  0  0  0  0  0  0  0  0  0
  1  2  1  0
  2  3  2  0
  3  4  1  0
  4  5  2  0
  5  6  1  0
  6  7  1  0
  7  8  1  0
  8  9  2  0
  9 10  1  0
 10 11  2  0
 11 12  1  0
 12 13  1  0
 12 14  2  0
 14 15  1  0
 15 16  2  0
 15 17  1  0
 17 18  1  0
  5 19  1  0
 19 20  2  0
 20 21  1  0
 21 22  1  0
 20  2  1  0
 17  6  2  0
 14  8  1  0
  1 23  1  0
  1 24  1  0
  1 25  1  0
  3 26  1  0
  4 27  1  0
  9 28  1  0
 10 29  1  0
 11 30  1  0
 13 31  1  0
 18 32  1  0
 19 33  1  0
 21 34  1  0
 21 35  1  0
M  END
>  <meeko>  (5) 
{"is_sidechain": [false], "free_energy": -6.884, "intermolecular_energy": -8.251, "internal_energy": 0.427}

$$$$
cand_045_out
     RDKit          3D

 35 37  0  0  0  0  0  0  0  0999 V2000
   44.7030   25.7650  -11.6760 C   0  0  0  0  0  0  0  0  0  0  0  0
   43.4800   26.2080  -12.4320 C   0  0  0  0  0  0  0  0  0  0  0  0
   42.4420   26.8480  -11.7400 C   0  0  0  0  0  0  0  0  0  0  0  0
   41.2890   27.2730  -12.4080 C   0  0  0  0  0  0  0  0  0  0  0  0
   41.1410   27.0630  -13.7830 C   0  0  0  0  0  0  0  0  0  0  0  0
   39.9440   27.5260  -14.5180 C   0  0  0  0  0  0  0  0  0  0  0  0
   39.8000   26.9100  -15.7560 O   0  0  0  0  0  0  0  0  0  0  0  0
   38.7260   27.2420  -16.5410 C   0  0  0  0  0  0  0  0  0  0  0  0
   38.6250   26.6060  -17.7790 C   0  0  0  0  0  0  0  0  0  0  0  0
   37.5560   26.8980  -18.6280 C   0  0  0  0  0  0  0  0  0  0  0  0
   36.5880   27.8270  -18.2400 C   0  0  0  0  0  0  0  0  0  0  0  0
   36.6910   28.4600  -17.0030 C   0  0  0  0  0  0  0  0  0  0  0  0
   35.7090   29.3580  -16.6850 O   0  0  0  0  0  0  0  0  0  0  0  0
   37.7610   28.1670  -16.1540 C   0  0  0  0  0  0  0  0  0  0  0  0
   37.9070   28.8090  -14.8480 C   0  0  0  0  0  0  0  0  0  0  0  0
   37.0930   29.6320  -14.4320 O   0  0  0  0  0  0  0  0  0  0  0  0
   39.0800   28.4320  -14.0250 C   0  0  0  0  0  0  0  0  0  0  0  0
   39.1980   29.0330  -12.7850 O   0  0  0  0  0  0  0  0  0  0  0  0
   42.1860   26.4320  -14.4760 C   0  0  0  0  0  0  0  0  0  0  0  0
   43.3540   26.0000  -13.8200 C   0  0  0  0  0  0  0  0  0  0  0  0
   44.4390   25.3200  -14.6170 C   0  0  0  0  0  0  0  0  0  0  0  0
   44.7130   24.0510  -14.1970 F   0  0  0  0  0  0  0  0  0  0  0  0
   44.5111   25.8345  -10.5951 H   0  0  0  0  0  0  0  0  0  0  0  0
   44.9402   24.7238  -11.9401 H   0  0  0  0  0  0  0  0  0  0  0  0
   45.5519   26.4127  -11.9401 H   0  0  0  0  0  0  0  0  0  0  0  0
   42.5357   27.0181  -10.6573 H   0  0  0  0  0  0  0  0  0  0  0  0
   40.4897   27.7780  -11.8458 H   0  0  0  0  0  0  0  0  0  0  0  0
   39.3874   25.8749  -18.0858 H   0  0  0  0  0  0  0  0  0  0  0  0
   37.4760   26.3959  -19.6035 H   0  0  0  0  0  0  0  0  0  0  0  0
   35.7463   28.0584  -18.9093 H   0  0  0  0  0  0  0  0  0  0  0  0
   34.9630   29.0810  -16.1900 H   0  0  0  0  0  0  0  0  0  0  0  0
   39.4550   29.9320  -12.7230 H   0  0  0  0  0  0  0  0  0  0  0  0
   42.0896   26.2710  -15.5599 H   0  0  0  0  0  0  0  0  0  0  0  0
   44.1220   25.2769  -15.6695 H   0  0  0  0  0  0  0  0  0  0  0  0
   45.3572   25.9100  -14.4798 H   0  0  0  0  0  0  0  0  0  0  0  0
  1  2  1  0
  2  3  2  0
  3  4  1  0
  4  5  2  0
  5  6  1  0
  6  7  1  0
  7  8  1  0
  8  9  2  0
  9 10  1  0
 10 11  2  0
 11 12  1  0
 12 13  1  0
 12 14  2  0
 14 15  1  0
 15 16  2  0
 15 17  1  0
 17 18  1  0
  5 19  1  0
 19 20  2  0
 20 21  1  0
 21 22  1  0
 20  2  1  0
 17  6  2  0
 14  8  1  0
  1 23  1  0
  1 24  1  0
  1 25  1  0
  3 26  1  0
  4 27  1  0
  9 28  1  0
 10 29  1  0
 11 30  1  0
 13 31  1  0
 18 32  1  0
 19 33  1  0
 21 34  1  0
 21 35  1  0
M  END
>  <meeko>  (6) 
{"is_sidechain": [false], "free_energy": -6.815, "intermolecular_energy": -8.001, "internal_energy": 0.258}

$$$$
cand_045_out
     RDKit          3D

 35 37  0  0  0  0  0  0  0  0999 V2000
   48.3780   24.1930  -13.5030 C   0  0  0  0  0  0  0  0  0  0  0  0
   46.9790   24.7210  -13.6700 C   0  0  0  0  0  0  0  0  0  0  0  0
   45.8940   23.9230  -13.2770 C   0  0  0  0  0  0  0  0  0  0  0  0
   44.5800   24.3790  -13.4180 C   0  0  0  0  0  0  0  0  0  0  0  0
   44.3150   25.6410  -13.9610 C   0  0  0  0  0  0  0  0  0  0  0  0
   42.9360   26.1570  -14.0970 C   0  0  0  0  0  0  0  0  0  0  0  0
   42.3890   25.9110  -15.3510 O   0  0  0  0  0  0  0  0  0  0  0  0
   41.1100   26.3320  -15.6110 C   0  0  0  0  0  0  0  0  0  0  0  0
   40.6040   26.0710  -16.8850 C   0  0  0  0  0  0  0  0  0  0  0  0
   39.3090   26.4730  -17.2170 C   0  0  0  0  0  0  0  0  0  0  0  0
   38.5200   27.1360  -16.2750 C   0  0  0  0  0  0  0  0  0  0  0  0
   39.0270   27.3950  -15.0040 C   0  0  0  0  0  0  0  0  0  0  0  0
   38.2010   28.0480  -14.1300 O   0  0  0  0  0  0  0  0  0  0  0  0
   40.3240   26.9930  -14.6730 C   0  0  0  0  0  0  0  0  0  0  0  0
   40.8950   27.2440  -13.3500 C   0  0  0  0  0  0  0  0  0  0  0  0
   40.2610   27.8170  -12.4650 O   0  0  0  0  0  0  0  0  0  0  0  0
   42.2800   26.7810  -13.1010 C   0  0  0  0  0  0  0  0  0  0  0  0
   42.8030   27.0100  -11.8420 O   0  0  0  0  0  0  0  0  0  0  0  0
   45.4020   26.4420  -14.3440 C   0  0  0  0  0  0  0  0  0  0  0  0
   46.7310   26.0000  -14.2070 C   0  0  0  0  0  0  0  0  0  0  0  0
   47.8580   26.9030  -14.6430 C   0  0  0  0  0  0  0  0  0  0  0  0
   48.5590   27.4450  -13.6060 F   0  0  0  0  0  0  0  0  0  0  0  0
   48.6112   24.1050  -12.4316 H   0  0  0  0  0  0  0  0  0  0  0  0
   48.4556   23.2037  -13.9776 H   0  0  0  0  0  0  0  0  0  0  0  0
   49.0899   24.8843  -13.9776 H   0  0  0  0  0  0  0  0  0  0  0  0
   46.0797   22.9254  -12.8523 H   0  0  0  0  0  0  0  0  0  0  0  0
   43.7449   23.7383  -13.0984 H   0  0  0  0  0  0  0  0  0  0  0  0
   41.2253   25.5487  -17.6274 H   0  0  0  0  0  0  0  0  0  0  0  0
   38.9100   26.2673  -18.2212 H   0  0  0  0  0  0  0  0  0  0  0  0
   37.4997   27.4532  -16.5363 H   0  0  0  0  0  0  0  0  0  0  0  0
   38.2030   27.8160  -13.2220 H   0  0  0  0  0  0  0  0  0  0  0  0
   43.5000   26.4720  -11.5200 H   0  0  0  0  0  0  0  0  0  0  0  0
   45.2101   27.4412  -14.7621 H   0  0  0  0  0  0  0  0  0  0  0  0
   48.5525   26.3170  -15.2629 H   0  0  0  0  0  0  0  0  0  0  0  0
   47.4046   27.7388  -15.1961 H   0  0  0  0  0  0  0  0  0  0  0  0
  1  2  1  0
  2  3  2  0
  3  4  1  0
  4  5  2  0
  5  6  1  0
  6  7  1  0
  7  8  1  0
  8  9  2  0
  9 10  1  0
 10 11  2  0
 11 12  1  0
 12 13  1  0
 12 14  2  0
 14 15  1  0
 15 16  2  0
 15 17  1  0
 17 18  1  0
  5 19  1  0
 19 20  2  0
 20 21  1  0
 21 22  1  0
 20  2  1  0
 17  6  2  0
 14  8  1  0
  1 23  1  0
  1 24  1  0
  1 25  1  0
  3 26  1  0
  4 27  1  0
  9 28  1  0
 10 29  1  0
 11 30  1  0
 13 31  1  0
 18 32  1  0
 19 33  1  0
 21 34  1  0
 21 35  1  0
M  END
>  <meeko>  (7) 
{"is_sidechain": [false], "free_energy": -6.352, "intermolecular_energy": -6.768, "internal_energy": -0.431}

$$$$
