cand_040_out
     RDKit          3D

 36 38  0  0  0  0  0  0  0  0999 V2000
   46.7090   24.7140  -13.7450 C   0  0  0  0  0  0  0  0  0  0  0  0
   45.5090   24.7050  -13.1510 C   0  0  0  0  0  0  0  0  0  0  0  0
   44.2910   25.2440  -13.7740 C   0  0  0  0  0  0  0  0  0  0  0  0
   43.6140   24.4860  -14.7390 C   0  0  0  0  0  0  0  0  0  0  0  0
   42.4350   24.9550  -15.3250 C   0  0  0  0  0  0  0  0  0  0  0  0
   41.8930   26.1890  -14.9490 C   0  0  0  0  0  0  0  0  0  0  0  0
   40.6570   26.6790  -15.5970 C   0  0  0  0  0  0  0  0  0  0  0  0
   39.8990   27.4970  -14.7670 O   0  0  0  0  0  0  0  0  0  0  0  0
   38.7260   28.0210  -15.2440 C   0  0  0  0  0  0  0  0  0  0  0  0
   37.9900   28.8230  -14.3700 C   0  0  0  0  0  0  0  0  0  0  0  0
   36.7860   29.3900  -14.7940 C   0  0  0  0  0  0  0  0  0  0  0  0
   36.3170   29.1540  -16.0890 C   0  0  0  0  0  0  0  0  0  0  0  0
   37.0540   28.3520  -16.9570 C   0  0  0  0  0  0  0  0  0  0  0  0
   36.5390   28.1640  -18.2100 O   0  0  0  0  0  0  0  0  0  0  0  0
   38.2590   27.7850  -16.5330 C   0  0  0  0  0  0  0  0  0  0  0  0
   39.0630   26.9370  -17.4130 C   0  0  0  0  0  0  0  0  0  0  0  0
   38.7220   26.6900  -18.5690 O   0  0  0  0  0  0  0  0  0  0  0  0
   40.3210   26.3780  -16.8660 C   0  0  0  0  0  0  0  0  0  0  0  0
   41.0790   25.5900  -17.7100 O   0  0  0  0  0  0  0  0  0  0  0  0
   42.5700   26.9480  -13.9830 C   0  0  0  0  0  0  0  0  0  0  0  0
   43.7620   26.4900  -13.3870 C   0  0  0  0  0  0  0  0  0  0  0  0
   44.4310   27.3490  -12.3480 C   0  0  0  0  0  0  0  0  0  0  0  0
   47.5831   24.2947  -13.2253 H   0  0  0  0  0  0  0  0  0  0  0  0
   46.8207   25.1407  -14.7527 H   0  0  0  0  0  0  0  0  0  0  0  0
   45.4301   24.2713  -12.1432 H   0  0  0  0  0  0  0  0  0  0  0  0
   44.0165   23.5074  -15.0397 H   0  0  0  0  0  0  0  0  0  0  0  0
   41.9281   24.3479  -16.0895 H   0  0  0  0  0  0  0  0  0  0  0  0
   38.3574   29.0080  -13.3498 H   0  0  0  0  0  0  0  0  0  0  0  0
   36.2058   30.0236  -14.1071 H   0  0  0  0  0  0  0  0  0  0  0  0
   35.3684   29.6004  -16.4219 H   0  0  0  0  0  0  0  0  0  0  0  0
   36.7560   27.3930  -18.6960 H   0  0  0  0  0  0  0  0  0  0  0  0
   41.4720   25.9640  -18.4740 H   0  0  0  0  0  0  0  0  0  0  0  0
   42.1606   27.9241  -13.6835 H   0  0  0  0  0  0  0  0  0  0  0  0
   44.1541   26.9934  -11.3446 H   0  0  0  0  0  0  0  0  0  0  0  0
   45.5226   27.2889  -12.4700 H   0  0  0  0  0  0  0  0  0  0  0  0
   44.1054   28.3926  -12.4700 H   0  0  0  0  0  0  0  0  0  0  0  0
  1  2  2  0
  2  3  1  0
  3  4  2  0
  4  5  1  0
  5  6  2  0
  6  7  1  0
  7  8  1  0
  8  9  1  0
  9 10  2  0
 10 11  1  0
 11 12  2  0
 12 13  1  0
 13 14  1  0
 13 15  2  0
 15 16  1  0
 16 17  2  0
 16 18  1  0
 18 19  1  0
  6 20  1  0
 20 21  2  0
 21 22  1  0
 21  3  1  0
 18  7  2  0
 15  9  1  0
  1 23  1  0
  1 24  1  0
  2 25  1  0
  4 26  1  0
  5 27  1  0
 10 28  1  0
 11 29  1  0
 12 30  1  0
 14 31  1  0
 19 32  1  0
 20 33  1  0
 22 34  1  0
 22 35  1  0
 22 36  1  0
M  END
>  <meeko>  (1) 
{"is_sidechain": [false], "free_energy": -8.647, "intermolecular_energy": -10.164, "internal_energy": 0.054}

$$$$
cand_040_out
     RDKit          3D

 36 38  0  0  0  0  0  0  0  0999 V2000
   46.9570   24.7330  -14.1750 C   0  0  0  0  0  0  0  0  0  0  0  0
   45.8260   24.4850  -13.5020 C   0  0  0  0  0  0  0  0  0  0  0  0
   44.5620   25.1910  -13.7540 C   0  0  0  0  0  0  0  0  0  0  0  0
   43.5810   24.5900  -14.5560 C   0  0  0  0  0  0  0  0  0  0  0  0
   42.3540   25.2200  -14.7860 C   0  0  0  0  0  0  0  0  0  0  0  0
   42.0700   26.4620  -14.2080 C   0  0  0  0  0  0  0  0  0  0  0  0
   40.7760   27.1230  -14.4830 C   0  0  0  0  0  0  0  0  0  0  0  0
   40.2990   26.8630  -15.7630 O   0  0  0  0  0  0  0  0  0  0  0  0
   39.1050   27.4150  -16.1490 C   0  0  0  0  0  0  0  0  0  0  0  0
   38.6710   27.1400  -17.4480 C   0  0  0  0  0  0  0  0  0  0  0  0
   37.4630   27.6700  -17.9050 C   0  0  0  0  0  0  0  0  0  0  0  0
   36.6880   28.4740  -17.0650 C   0  0  0  0  0  0  0  0  0  0  0  0
   37.1240   28.7460  -15.7700 C   0  0  0  0  0  0  0  0  0  0  0  0
   36.3160   29.5390  -15.0020 O   0  0  0  0  0  0  0  0  0  0  0  0
   38.3330   28.2160  -15.3130 C   0  0  0  0  0  0  0  0  0  0  0  0
   38.8280   28.4780  -13.9610 C   0  0  0  0  0  0  0  0  0  0  0  0
   38.1990   29.1690  -13.1610 O   0  0  0  0  0  0  0  0  0  0  0  0
   40.1250   27.8760  -13.5770 C   0  0  0  0  0  0  0  0  0  0  0  0
   40.5750   28.1180  -12.2930 O   0  0  0  0  0  0  0  0  0  0  0  0
   43.0510   27.0640  -13.4060 C   0  0  0  0  0  0  0  0  0  0  0  0
   44.2930   26.4430  -13.1680 C   0  0  0  0  0  0  0  0  0  0  0  0
   45.2960   27.1390  -12.2870 C   0  0  0  0  0  0  0  0  0  0  0  0
   47.8720   24.1698  -13.9393 H   0  0  0  0  0  0  0  0  0  0  0  0
   46.9709   25.4999  -14.9634 H   0  0  0  0  0  0  0  0  0  0  0  0
   45.8441   23.7122  -12.7194 H   0  0  0  0  0  0  0  0  0  0  0  0
   43.7797   23.6084  -15.0109 H   0  0  0  0  0  0  0  0  0  0  0  0
   41.6044   24.7341  -15.4279 H   0  0  0  0  0  0  0  0  0  0  0  0
   39.2801   26.5068  -18.1098 H   0  0  0  0  0  0  0  0  0  0  0  0
   37.1207   27.4544  -18.9279 H   0  0  0  0  0  0  0  0  0  0  0  0
   35.7361   28.8911  -17.4253 H   0  0  0  0  0  0  0  0  0  0  0  0
   35.6690   29.1500  -14.4460 H   0  0  0  0  0  0  0  0  0  0  0  0
   39.9610   28.2340  -11.5940 H   0  0  0  0  0  0  0  0  0  0  0  0
   42.8455   28.0446  -12.9520 H   0  0  0  0  0  0  0  0  0  0  0  0
   45.0417   26.9625  -11.2315 H   0  0  0  0  0  0  0  0  0  0  0  0
   46.3016   26.7436  -12.4929 H   0  0  0  0  0  0  0  0  0  0  0  0
   45.2775   28.2194  -12.4929 H   0  0  0  0  0  0  0  0  0  0  0  0
  1  2  2  0
  2  3  1  0
  3  4  2  0
  4  5  1  0
  5  6  2  0
  6  7  1  0
  7  8  1  0
  8  9  1  0
  9 10  2  0
 10 11  1  0
 11 12  2  0
 12 13  1  0
 13 14  1  0
 13 15  2  0
 15 16  1  0
 16 17  2  0
 16 18  1  0
 18 19  1  0
  6 20  1  0
 20 21  2  0
 21 22  1  0
 21  3  1  0
 18  7  2  0
 15  9  1  0
  1 23  1  0
  1 24  1  0
  2 25  1  0
  4 26  1  0
  5 27  1  0
 10 28  1  0
 11 29  1  0
 12 30  1  0
 14 31  1  0
 19 32  1  0
 20 33  1  0
 22 34  1  0
 22 35  1  0
 22 36  1  0
M  END
>  <meeko>  (2) 
{"is_sidechain": [false], "free_energy": -8.531, "intermolecular_energy": -10.009, "internal_energy": 0.035}

$$$$
cand_040_out
     RDKit          3D

 36 38  0  0  0  0  0  0  0  0999 V2000
   34.9830   29.9190  -18.1240 C   0  0  0  0  0  0  0  0  0  0  0  0
   35.6900   28.7920  -18.2720 C   0  0  0  0  0  0  0  0  0  0  0  0
   36.8070   28.4130  -17.3940 C   0  0  0  0  0  0  0  0  0  0  0  0
   37.0070   29.1060  -16.1920 C   0  0  0  0  0  0  0  0  0  0  0  0
   38.0380   28.7480  -15.3190 C   0  0  0  0  0  0  0  0  0  0  0  0
   38.8880   27.6770  -15.6180 C   0  0  0  0  0  0  0  0  0  0  0  0
   39.9880   27.3290  -14.6930 C   0  0  0  0  0  0  0  0  0  0  0  0
   41.0340   26.6660  -15.3230 O   0  0  0  0  0  0  0  0  0  0  0  0
   42.1220   26.2850  -14.5800 C   0  0  0  0  0  0  0  0  0  0  0  0
   43.1420   25.6080  -15.2510 C   0  0  0  0  0  0  0  0  0  0  0  0
   44.2780   25.1930  -14.5530 C   0  0  0  0  0  0  0  0  0  0  0  0
   44.3940   25.4550  -13.1850 C   0  0  0  0  0  0  0  0  0  0  0  0
   43.3750   26.1300  -12.5200 C   0  0  0  0  0  0  0  0  0  0  0  0
   43.5540   26.3540  -11.1820 O   0  0  0  0  0  0  0  0  0  0  0  0
   42.2380   26.5450  -13.2180 C   0  0  0  0  0  0  0  0  0  0  0  0
   41.1430   27.2560  -12.5560 C   0  0  0  0  0  0  0  0  0  0  0  0
   41.1760   27.5300  -11.3580 O   0  0  0  0  0  0  0  0  0  0  0  0
   39.9790   27.6450  -13.3840 C   0  0  0  0  0  0  0  0  0  0  0  0
   38.9580   28.3290  -12.7520 O   0  0  0  0  0  0  0  0  0  0  0  0
   38.6880   26.9840  -16.8210 C   0  0  0  0  0  0  0  0  0  0  0  0
   37.6560   27.3360  -17.7130 C   0  0  0  0  0  0  0  0  0  0  0  0
   37.4900   26.5420  -18.9810 C   0  0  0  0  0  0  0  0  0  0  0  0
   34.1578   30.1454  -18.8152 H   0  0  0  0  0  0  0  0  0  0  0  0
   35.2273   30.6188  -17.3112 H   0  0  0  0  0  0  0  0  0  0  0  0
   35.4209   28.1130  -19.0945 H   0  0  0  0  0  0  0  0  0  0  0  0
   36.3430   29.9436  -15.9322 H   0  0  0  0  0  0  0  0  0  0  0  0
   38.1830   29.3140  -14.3870 H   0  0  0  0  0  0  0  0  0  0  0  0
   43.0510   25.4018  -16.3277 H   0  0  0  0  0  0  0  0  0  0  0  0
   45.0824   24.6593  -15.0803 H   0  0  0  0  0  0  0  0  0  0  0  0
   45.2890   25.1283  -12.6352 H   0  0  0  0  0  0  0  0  0  0  0  0
   43.5870   27.2310  -10.8530 H   0  0  0  0  0  0  0  0  0  0  0  0
   38.0670   28.0670  -12.8830 H   0  0  0  0  0  0  0  0  0  0  0  0
   39.3532   26.1453  -17.0741 H   0  0  0  0  0  0  0  0  0  0  0  0
   37.2708   25.4935  -18.7310 H   0  0  0  0  0  0  0  0  0  0  0  0
   36.6598   26.9600  -19.5693 H   0  0  0  0  0  0  0  0  0  0  0  0
   38.4181   26.5924  -19.5693 H   0  0  0  0  0  0  0  0  0  0  0  0
  1  2  2  0
  2  3  1  0
  3  4  2  0
  4  5  1  0
  5  6  2  0
  6  7  1  0
  7  8  1  0
  8  9  1  0
  9 10  2  0
 10 11  1  0
 11 12  2  0
 12 13  1  0
 13 14  1  0
 13 15  2  0
 15 16  1  0
 16 17  2  0
 16 18  1  0
 18 19  1  0
  6 20  1  0
 20 21  2  0
 21 22  1  0
 21  3  1  0
 18  7  2  0
 15  9  1  0
  1 23  1  0
  1 24  1  0
  2 25  1  0
  4 26  1  0
  5 27  1  0
 10 28  1  0
 11 29  1  0
 12 30  1  0
 14 31  1  0
 19 32  1  0
 20 33  1  0
 22 34  1  0
 22 35  1  0
 22 36  1  0
M  END
>  <meeko>  (3) 
{"is_sidechain": [false], "free_energy": -7.536, "intermolecular_energy": -8.938, "internal_energy": 0.134}

$$$$
cand_040_out
     RDKit          3D

 36 38  0  0  0  0  0  0  0  0999 V2000
   47.3270   25.0760  -14.0220 C   0  0  0  0  0  0  0  0  0  0  0  0
   46.3060   25.0320  -13.1560 C   0  0  0  0  0  0  0  0  0  0  0  0
   44.9590   25.5320  -13.4650 C   0  0  0  0  0  0  0  0  0  0  0  0
   44.7050   26.9110  -13.4230 C   0  0  0  0  0  0  0  0  0  0  0  0
   43.4440   27.4200  -13.7450 C   0  0  0  0  0  0  0  0  0  0  0  0
   42.4060   26.5660  -14.1330 C   0  0  0  0  0  0  0  0  0  0  0  0
   41.0730   27.1230  -14.4470 C   0  0  0  0  0  0  0  0  0  0  0  0
   40.6360   26.7890  -15.7240 O   0  0  0  0  0  0  0  0  0  0  0  0
   39.4120   27.2400  -16.1460 C   0  0  0  0  0  0  0  0  0  0  0  0
   39.0200   26.8940  -17.4400 C   0  0  0  0  0  0  0  0  0  0  0  0
   37.7850   27.3210  -17.9310 C   0  0  0  0  0  0  0  0  0  0  0  0
   36.9410   28.0940  -17.1280 C   0  0  0  0  0  0  0  0  0  0  0  0
   37.3350   28.4370  -15.8380 C   0  0  0  0  0  0  0  0  0  0  0  0
   36.4610   29.1940  -15.1070 O   0  0  0  0  0  0  0  0  0  0  0  0
   38.5720   28.0100  -15.3470 C   0  0  0  0  0  0  0  0  0  0  0  0
   39.0250   28.3500  -13.9970 C   0  0  0  0  0  0  0  0  0  0  0  0
   38.3360   29.0190  -13.2290 O   0  0  0  0  0  0  0  0  0  0  0  0
   40.3550   27.8550  -13.5760 C   0  0  0  0  0  0  0  0  0  0  0  0
   40.7670   28.1700  -12.2940 O   0  0  0  0  0  0  0  0  0  0  0  0
   42.6590   25.1870  -14.1760 C   0  0  0  0  0  0  0  0  0  0  0  0
   43.9250   24.6580  -13.8500 C   0  0  0  0  0  0  0  0  0  0  0  0
   44.1310   23.1690  -13.9290 C   0  0  0  0  0  0  0  0  0  0  0  0
   48.3129   24.6849  -13.7303 H   0  0  0  0  0  0  0  0  0  0  0  0
   47.1796   25.5033  -15.0248 H   0  0  0  0  0  0  0  0  0  0  0  0
   46.4852   24.5987  -12.1609 H   0  0  0  0  0  0  0  0  0  0  0  0
   45.5102   27.6018  -13.1324 H   0  0  0  0  0  0  0  0  0  0  0  0
   43.2656   28.5042  -13.6928 H   0  0  0  0  0  0  0  0  0  0  0  0
   39.6834   26.2856  -18.0722 H   0  0  0  0  0  0  0  0  0  0  0  0
   37.4755   27.0490  -18.9509 H   0  0  0  0  0  0  0  0  0  0  0  0
   35.9678   28.4303  -17.5149 H   0  0  0  0  0  0  0  0  0  0  0  0
   35.7280   29.6010  -15.5260 H   0  0  0  0  0  0  0  0  0  0  0  0
   41.0300   27.4890  -11.7060 H   0  0  0  0  0  0  0  0  0  0  0  0
   41.8506   24.5018  -14.4710 H   0  0  0  0  0  0  0  0  0  0  0  0
   44.1886   22.7524  -12.9126 H   0  0  0  0  0  0  0  0  0  0  0  0
   43.2878   22.7102  -14.4661 H   0  0  0  0  0  0  0  0  0  0  0  0
   45.0671   22.9563  -14.4661 H   0  0  0  0  0  0  0  0  0  0  0  0
  1  2  2  0
  2  3  1  0
  3  4  2  0
  4  5  1  0
  5  6  2  0
  6  7  1  0
  7  8  1  0
  8  9  1  0
  9 10  2  0
 10 11  1  0
 11 12  2  0
 12 13  1  0
 13 14  1  0
 13 15  2  0
 15 16  1  0
 16 17  2  0
 16 18  1  0
 18 19  1  0
  6 20  1  0
 20 21  2  0
 21 22  1  0
 21  3  1  0
 18  7  2  0
 15  9  1  0
  1 23  1  0
  1 24  1  0
  2 25  1  0
  4 26  1  0
  5 27  1  0
 10 28  1  0
 11 29  1  0
 12 30  1  0
 14 31  1  0
 19 32  1  0
 20 33  1  0
 22 34  1  0
 22 35  1  0
 22 36  1  0
M  END
>  <meeko>  (4) 
{"is_sidechain": [false], "free_energy": -5.855, "intermolecular_energy": -6.555, "internal_energy": -0.273}

$$$$
