cand_005_out
     RDKit          3D

 36 38  0  0  0  0  0  0  0  0999 V2000
   42.3830   26.6870  -10.8800 C   0  0  0  0  0  0  0  0  0  0  0  0
   43.3640   26.6590  -11.7890 C   0  0  0  0  0  0  0  0  0  0  0  0
   43.1420   26.2420  -13.1800 C   0  0  0  0  0  0  0  0  0  0  0  0
   41.9680   26.6600  -13.8320 C   0  0  0  0  0  0  0  0  0  0  0  0
   41.6860   26.2810  -15.1540 C   0  0  0  0  0  0  0  0  0  0  0  0
   40.4530   26.7640  -15.8100 C   0  0  0  0  0  0  0  0  0  0  0  0
   39.6720   27.5560  -14.9770 O   0  0  0  0  0  0  0  0  0  0  0  0
   38.4960   28.0690  -15.4620 C   0  0  0  0  0  0  0  0  0  0  0  0
   37.7490   28.8700  -14.5970 C   0  0  0  0  0  0  0  0  0  0  0  0
   36.5410   29.4220  -15.0270 C   0  0  0  0  0  0  0  0  0  0  0  0
   36.0800   29.1750  -16.3220 C   0  0  0  0  0  0  0  0  0  0  0  0
   36.8270   28.3740  -17.1830 C   0  0  0  0  0  0  0  0  0  0  0  0
   36.3160   28.1730  -18.4350 O   0  0  0  0  0  0  0  0  0  0  0  0
   38.0360   27.8230  -16.7520 C   0  0  0  0  0  0  0  0  0  0  0  0
   38.8510   26.9770  -17.6260 C   0  0  0  0  0  0  0  0  0  0  0  0
   38.5100   26.7070  -18.7750 O   0  0  0  0  0  0  0  0  0  0  0  0
   40.1190   26.4460  -17.0750 C   0  0  0  0  0  0  0  0  0  0  0  0
   40.8750   25.6370  -17.9020 O   0  0  0  0  0  0  0  0  0  0  0  0
   42.6140   25.4790  -15.8260 C   0  0  0  0  0  0  0  0  0  0  0  0
   43.7820   25.0530  -15.1890 C   0  0  0  0  0  0  0  0  0  0  0  0
   44.0610   25.4230  -13.8610 C   0  0  0  0  0  0  0  0  0  0  0  0
   45.3390   24.9520  -13.2080 C   0  0  0  0  0  0  0  0  0  0  0  0
   46.2370   25.9550  -13.0050 F   0  0  0  0  0  0  0  0  0  0  0  0
   46.0050   24.0140  -13.9440 F   0  0  0  0  0  0  0  0  0  0  0  0
   45.1340   24.3720  -11.9910 F   0  0  0  0  0  0  0  0  0  0  0  0
   42.5970   27.0067   -9.8495 H   0  0  0  0  0  0  0  0  0  0  0  0
   41.3623   26.3903  -11.1630 H   0  0  0  0  0  0  0  0  0  0  0  0
   44.3767   26.9601  -11.4829 H   0  0  0  0  0  0  0  0  0  0  0  0
   41.2534   27.2994  -13.2930 H   0  0  0  0  0  0  0  0  0  0  0  0
   38.1118   29.0662  -13.5773 H   0  0  0  0  0  0  0  0  0  0  0  0
   35.9515   30.0523  -14.3450 H   0  0  0  0  0  0  0  0  0  0  0  0
   35.1293   29.6119  -16.6614 H   0  0  0  0  0  0  0  0  0  0  0  0
   35.9090   28.8800  -18.8950 H   0  0  0  0  0  0  0  0  0  0  0  0
   40.4650   24.9490  -18.3890 H   0  0  0  0  0  0  0  0  0  0  0  0
   42.4221   25.1805  -16.8672 H   0  0  0  0  0  0  0  0  0  0  0  0
   44.4951   24.4178  -15.7349 H   0  0  0  0  0  0  0  0  0  0  0  0
  1  2  2  0
  2  3  1  0
  3  4  2  0
  4  5  1  0
  5  6  1  0
  6  7  1  0
  7  8  1  0
  8  9  2  0
  9 10  1  0
 10 11  2  0
 11 12  1  0
 12 13  1  0
 12 14  2  0
 14 15  1  0
 15 16  2  0
 15 17  1  0
 17 18  1  0
  5 19  2  0
 19 20  1  0
 20 21  2  0
 21 22  1  0
 22 23  1  0
 22 24  1  0
 22 25  1  0
 21  3  1  0
 17  6  2  0
 14  8  1  0
  1 26  1  0
  1 27  1  0
  2 28  1  0
  4 29  1  0
  9 30  1  0
 10 31  1  0
 11 32  1  0
 13 33  1  0
 18 34  1  0
 19 35  1  0
 20 36  1  0
M  END
>  <meeko>  (1) 
{"is_sidechain": [false], "free_energy": -7.052, "intermolecular_energy": -8.702, "internal_energy": 0.064}

$$$$
cand_005_out
     RDKit          3D

 36 38  0  0  0  0  0  0  0  0999 V2000
   46.3850   27.6490  -12.6160 C   0  0  0  0  0  0  0  0  0  0  0  0
   45.2470   27.0670  -12.2210 C   0  0  0  0  0  0  0  0  0  0  0  0
   44.3330   26.4000  -13.1580 C   0  0  0  0  0  0  0  0  0  0  0  0
   43.0730   26.9780  -13.3990 C   0  0  0  0  0  0  0  0  0  0  0  0
   42.1460   26.3820  -14.2690 C   0  0  0  0  0  0  0  0  0  0  0  0
   40.8430   27.0360  -14.5140 C   0  0  0  0  0  0  0  0  0  0  0  0
   40.3600   26.8140  -15.7980 O   0  0  0  0  0  0  0  0  0  0  0  0
   39.1570   27.3680  -16.1570 C   0  0  0  0  0  0  0  0  0  0  0  0
   38.7020   27.1090  -17.4510 C   0  0  0  0  0  0  0  0  0  0  0  0
   37.4870   27.6440  -17.8820 C   0  0  0  0  0  0  0  0  0  0  0  0
   36.7260   28.4380  -17.0210 C   0  0  0  0  0  0  0  0  0  0  0  0
   37.1830   28.6950  -15.7300 C   0  0  0  0  0  0  0  0  0  0  0  0
   36.3890   29.4800  -14.9400 O   0  0  0  0  0  0  0  0  0  0  0  0
   38.3990   28.1590  -15.2990 C   0  0  0  0  0  0  0  0  0  0  0  0
   38.9140   28.4050  -13.9510 C   0  0  0  0  0  0  0  0  0  0  0  0
   38.3080   29.0980  -13.1380 O   0  0  0  0  0  0  0  0  0  0  0  0
   40.2110   27.7850  -13.5910 C   0  0  0  0  0  0  0  0  0  0  0  0
   40.6970   28.0350  -12.3210 O   0  0  0  0  0  0  0  0  0  0  0  0
   42.5070   25.1940  -14.9110 C   0  0  0  0  0  0  0  0  0  0  0  0
   43.7530   24.6070  -14.6760 C   0  0  0  0  0  0  0  0  0  0  0  0
   44.6790   25.1960  -13.7970 C   0  0  0  0  0  0  0  0  0  0  0  0
   46.0210   24.5390  -13.5770 C   0  0  0  0  0  0  0  0  0  0  0  0
   47.0500   25.2110  -14.1650 F   0  0  0  0  0  0  0  0  0  0  0  0
   46.0870   23.2700  -14.0760 F   0  0  0  0  0  0  0  0  0  0  0  0
   46.3480   24.4220  -12.2580 F   0  0  0  0  0  0  0  0  0  0  0  0
   47.0384   28.1367  -11.8777 H   0  0  0  0  0  0  0  0  0  0  0  0
   46.6673   27.6398  -13.6791 H   0  0  0  0  0  0  0  0  0  0  0  0
   44.9854   27.0887  -11.1528 H   0  0  0  0  0  0  0  0  0  0  0  0
   42.8080   27.9187  -12.8941 H   0  0  0  0  0  0  0  0  0  0  0  0
   39.3003   26.4840  -18.1303 H   0  0  0  0  0  0  0  0  0  0  0  0
   37.1281   27.4399  -18.9016 H   0  0  0  0  0  0  0  0  0  0  0  0
   35.7685   28.8593  -17.3612 H   0  0  0  0  0  0  0  0  0  0  0  0
   36.7660   30.1800  -14.4440 H   0  0  0  0  0  0  0  0  0  0  0  0
   40.1650   28.4870  -11.6960 H   0  0  0  0  0  0  0  0  0  0  0  0
   41.8030   24.7164  -15.6083 H   0  0  0  0  0  0  0  0  0  0  0  0
   44.0138   23.6685  -15.1871 H   0  0  0  0  0  0  0  0  0  0  0  0
  1  2  2  0
  2  3  1  0
  3  4  2  0
  4  5  1  0
  5  6  1  0
  6  7  1  0
  7  8  1  0
  8  9  2  0
  9 10  1  0
 10 11  2  0
 11 12  1  0
 12 13  1  0
 12 14  2  0
 14 15  1  0
 15 16  2  0
 15 17  1  0
 17 18  1  0
  5 19  2  0
 19 20  1  0
 20 21  2  0
 21 22  1  0
 22 23  1  0
 22 24  1  0
 22 25  1  0
 21  3  1  0
 17  6  2  0
 14  8  1  0
  1 26  1  0
  1 27  1  0
  2 28  1  0
  4 29  1  0
  9 30  1  0
 10 31  1  0
 11 32  1  0
 13 33  1  0
 18 34  1  0
 19 35  1  0
 20 36  1  0
M  END
>  <meeko>  (2) 
{"is_sidechain": [false], "free_energy": -6.543, "intermolecular_energy": -8.358, "internal_energy": 0.349}

$$$$
cand_005_out
     RDKit          3D

 36 38  0  0  0  0  0  0  0  0999 V2000
   38.2260   26.5470  -19.2080 C   0  0  0  0  0  0  0  0  0  0  0  0
   37.3020   26.8860  -18.3010 C   0  0  0  0  0  0  0  0  0  0  0  0
   37.6200   27.6820  -17.1090 C   0  0  0  0  0  0  0  0  0  0  0  0
   38.6690   27.2570  -16.2720 C   0  0  0  0  0  0  0  0  0  0  0  0
   39.0110   27.9620  -15.1070 C   0  0  0  0  0  0  0  0  0  0  0  0
   40.1370   27.4950  -14.2700 C   0  0  0  0  0  0  0  0  0  0  0  0
   41.1230   26.8460  -15.0030 O   0  0  0  0  0  0  0  0  0  0  0  0
   42.2250   26.3600  -14.3460 C   0  0  0  0  0  0  0  0  0  0  0  0
   43.1970   25.7280  -15.1220 C   0  0  0  0  0  0  0  0  0  0  0  0
   44.3430   25.2090  -14.5160 C   0  0  0  0  0  0  0  0  0  0  0  0
   44.5170   25.3220  -13.1350 C   0  0  0  0  0  0  0  0  0  0  0  0
   43.5450   25.9530  -12.3630 C   0  0  0  0  0  0  0  0  0  0  0  0
   43.7790   26.0280  -11.0180 O   0  0  0  0  0  0  0  0  0  0  0  0
   42.3990   26.4730  -12.9700 C   0  0  0  0  0  0  0  0  0  0  0  0
   41.3540   27.1440  -12.1950 C   0  0  0  0  0  0  0  0  0  0  0  0
   41.4300   27.2770  -10.9760 O   0  0  0  0  0  0  0  0  0  0  0  0
   40.1810   27.6650  -12.9360 C   0  0  0  0  0  0  0  0  0  0  0  0
   39.1930   28.2840  -12.1940 O   0  0  0  0  0  0  0  0  0  0  0  0
   38.2910   29.1200  -14.7960 C   0  0  0  0  0  0  0  0  0  0  0  0
   37.2440   29.5500  -15.6150 C   0  0  0  0  0  0  0  0  0  0  0  0
   36.8930   28.8390  -16.7770 C   0  0  0  0  0  0  0  0  0  0  0  0
   35.7620   29.3410  -17.6440 C   0  0  0  0  0  0  0  0  0  0  0  0
   35.5380   28.5580  -18.7360 F   0  0  0  0  0  0  0  0  0  0  0  0
   35.9790   30.5950  -18.1380 F   0  0  0  0  0  0  0  0  0  0  0  0
   34.5740   29.4190  -16.9810 F   0  0  0  0  0  0  0  0  0  0  0  0
   37.9412   25.9490  -20.0862 H   0  0  0  0  0  0  0  0  0  0  0  0
   39.2702   26.8664  -19.0752 H   0  0  0  0  0  0  0  0  0  0  0  0
   36.2641   26.5554  -18.4546 H   0  0  0  0  0  0  0  0  0  0  0  0
   39.2341   26.3512  -16.5369 H   0  0  0  0  0  0  0  0  0  0  0  0
   43.0608   25.6386  -16.2099 H   0  0  0  0  0  0  0  0  0  0  0  0
   45.1097   24.7105  -15.1272 H   0  0  0  0  0  0  0  0  0  0  0  0
   45.4201   24.9134  -12.6580 H   0  0  0  0  0  0  0  0  0  0  0  0
   43.4230   25.3800  -10.4430 H   0  0  0  0  0  0  0  0  0  0  0  0
   38.4340   28.6320  -12.6200 H   0  0  0  0  0  0  0  0  0  0  0  0
   38.5518   29.6982  -13.8973 H   0  0  0  0  0  0  0  0  0  0  0  0
   36.6853   30.4589  -15.3470 H   0  0  0  0  0  0  0  0  0  0  0  0
  1  2  2  0
  2  3  1  0
  3  4  2  0
  4  5  1  0
  5  6  1  0
  6  7  1  0
  7  8  1  0
  8  9  2  0
  9 10  1  0
 10 11  2  0
 11 12  1  0
 12 13  1  0
 12 14  2  0
 14 15  1  0
 15 16  2  0
 15 17  1  0
 17 18  1  0
  5 19  2  0
 19 20  1  0
 20 21  2  0
 21 22  1  0
 22 23  1  0
 22 24  1  0
 22 25  1  0
 21  3  1  0
 17  6  2  0
 14  8  1  0
  1 26  1  0
  1 27  1  0
  2 28  1  0
  4 29  1  0
  9 30  1  0
 10 31  1  0
 11 32  1  0
 13 33  1  0
 18 34  1  0
 19 35  1  0
 20 36  1  0
M  END
>  <meeko>  (3) 
{"is_sidechain": [false], "free_energy": -6.265, "intermolecular_energy": -8.004, "internal_energy": 0.339}

$$$$
cand_005_out
     RDKit          3D

 36 38  0  0  0  0  0  0  0  0999 V2000
   41.8510   26.8580  -10.7050 C   0  0  0  0  0  0  0  0  0  0  0  0
   42.8090   26.7000  -11.6270 C   0  0  0  0  0  0  0  0  0  0  0  0
   42.5100   26.4340  -13.0390 C   0  0  0  0  0  0  0  0  0  0  0  0
   41.3100   26.9310  -13.5820 C   0  0  0  0  0  0  0  0  0  0  0  0
   40.9560   26.6960  -14.9200 C   0  0  0  0  0  0  0  0  0  0  0  0
   39.6990   27.2590  -15.4570 C   0  0  0  0  0  0  0  0  0  0  0  0
   39.3760   26.7600  -16.7130 O   0  0  0  0  0  0  0  0  0  0  0  0
   38.2320   27.2020  -17.3270 C   0  0  0  0  0  0  0  0  0  0  0  0
   37.9380   26.6650  -18.5820 C   0  0  0  0  0  0  0  0  0  0  0  0
   36.7900   27.0740  -19.2620 C   0  0  0  0  0  0  0  0  0  0  0  0
   35.9340   28.0180  -18.6900 C   0  0  0  0  0  0  0  0  0  0  0  0
   36.2300   28.5520  -17.4380 C   0  0  0  0  0  0  0  0  0  0  0  0
   35.3510   29.4720  -16.9360 O   0  0  0  0  0  0  0  0  0  0  0  0
   37.3800   28.1430  -16.7570 C   0  0  0  0  0  0  0  0  0  0  0  0
   37.7260   28.6790  -15.4400 C   0  0  0  0  0  0  0  0  0  0  0  0
   37.0290   29.5170  -14.8730 O   0  0  0  0  0  0  0  0  0  0  0  0
   38.9630   28.1740  -14.8000 C   0  0  0  0  0  0  0  0  0  0  0  0
   39.2910   28.6970  -13.5620 O   0  0  0  0  0  0  0  0  0  0  0  0
   41.8360   25.9600  -15.7200 C   0  0  0  0  0  0  0  0  0  0  0  0
   43.0280   25.4560  -15.1930 C   0  0  0  0  0  0  0  0  0  0  0  0
   43.3790   25.6810  -13.8500 C   0  0  0  0  0  0  0  0  0  0  0  0
   44.6810   25.1300  -13.3170 C   0  0  0  0  0  0  0  0  0  0  0  0
   44.6180   24.7880  -12.0010 F   0  0  0  0  0  0  0  0  0  0  0  0
   45.7180   26.0140  -13.4120 F   0  0  0  0  0  0  0  0  0  0  0  0
   45.1000   24.0150  -13.9810 F   0  0  0  0  0  0  0  0  0  0  0  0
   42.1229   27.0560   -9.6577 H   0  0  0  0  0  0  0  0  0  0  0  0
   40.7921   26.7898  -10.9949 H   0  0  0  0  0  0  0  0  0  0  0  0
   43.8610   26.7724  -11.3140 H   0  0  0  0  0  0  0  0  0  0  0  0
   40.6337   27.5174  -12.9427 H   0  0  0  0  0  0  0  0  0  0  0  0
   38.6102   25.9208  -19.0339 H   0  0  0  0  0  0  0  0  0  0  0  0
   36.5586   26.6518  -20.2511 H   0  0  0  0  0  0  0  0  0  0  0  0
   35.0289   28.3387  -19.2266 H   0  0  0  0  0  0  0  0  0  0  0  0
   34.8930   30.0480  -17.5160 H   0  0  0  0  0  0  0  0  0  0  0  0
   39.9680   29.3400  -13.4890 H   0  0  0  0  0  0  0  0  0  0  0  0
   41.5871   25.7759  -16.7755 H   0  0  0  0  0  0  0  0  0  0  0  0
   43.7022   24.8742  -15.8387 H   0  0  0  0  0  0  0  0  0  0  0  0
  1  2  2  0
  2  3  1  0
  3  4  2  0
  4  5  1  0
  5  6  1  0
  6  7  1  0
  7  8  1  0
  8  9  2  0
  9 10  1  0
 10 11  2  0
 11 12  1  0
 12 13  1  0
 12 14  2  0
 14 15  1  0
 15 16  2  0
 15 17  1  0
 17 18  1  0
  5 19  2  0
 19 20  1  0
 20 21  2  0
 21 22  1  0
 22 23  1  0
 22 24  1  0
 22 25  1  0
 21  3  1  0
 17  6  2  0
 14  8  1  0
  1 26  1  0
  1 27  1  0
  2 28  1  0
  4 29  1  0
  9 30  1  0
 10 31  1  0
 11 32  1  0
 13 33  1  0
 18 34  1  0
 19 35  1  0
 20 36  1  0
M  END
>  <meeko>  (4) 
{"is_sidechain": [false], "free_energy": -5.169, "intermolecular_energy": -6.65, "internal_energy": 0.337}

$$$$
cand_005_out
     RDKit          3D

 36 38  0  0  0  0  0  0  0  0999 V2000
   45.3430   25.3330  -14.7260 C   0  0  0  0  0  0  0  0  0  0  0  0
   44.0780   24.9100  -14.6190 C   0  0  0  0  0  0  0  0  0  0  0  0
   42.9810   25.7940  -14.2050 C   0  0  0  0  0  0  0  0  0  0  0  0
   41.9350   26.0460  -15.1130 C   0  0  0  0  0  0  0  0  0  0  0  0
   40.8670   26.8950  -14.7860 C   0  0  0  0  0  0  0  0  0  0  0  0
   39.7760   27.1110  -15.7600 C   0  0  0  0  0  0  0  0  0  0  0  0
   38.8320   28.0320  -15.3200 O   0  0  0  0  0  0  0  0  0  0  0  0
   37.7640   28.3230  -16.1300 C   0  0  0  0  0  0  0  0  0  0  0  0
   36.8470   29.2630  -15.6550 C   0  0  0  0  0  0  0  0  0  0  0  0
   35.7370   29.6040  -16.4290 C   0  0  0  0  0  0  0  0  0  0  0  0
   35.5410   29.0070  -17.6760 C   0  0  0  0  0  0  0  0  0  0  0  0
   36.4570   28.0690  -18.1470 C   0  0  0  0  0  0  0  0  0  0  0  0
   36.2050   27.5240  -19.3750 O   0  0  0  0  0  0  0  0  0  0  0  0
   37.5690   27.7290  -17.3720 C   0  0  0  0  0  0  0  0  0  0  0  0
   38.5550   26.7490  -17.8310 C   0  0  0  0  0  0  0  0  0  0  0  0
   38.4500   26.1750  -18.9130 O   0  0  0  0  0  0  0  0  0  0  0  0
   39.7020   26.4630  -16.9370 C   0  0  0  0  0  0  0  0  0  0  0  0
   40.6200   25.5250  -17.3720 O   0  0  0  0  0  0  0  0  0  0  0  0
   40.8520   27.4860  -13.5190 C   0  0  0  0  0  0  0  0  0  0  0  0
   41.8860   27.2490  -12.6100 C   0  0  0  0  0  0  0  0  0  0  0  0
   42.9630   26.4070  -12.9390 C   0  0  0  0  0  0  0  0  0  0  0  0
   44.0580   26.1650  -11.9260 C   0  0  0  0  0  0  0  0  0  0  0  0
   45.1140   27.0140  -12.0670 F   0  0  0  0  0  0  0  0  0  0  0  0
   44.5910   24.9110  -11.9990 F   0  0  0  0  0  0  0  0  0  0  0  0
   43.6320   26.2990  -10.6380 F   0  0  0  0  0  0  0  0  0  0  0  0
   46.1320   24.6338  -15.0400 H   0  0  0  0  0  0  0  0  0  0  0  0
   45.5939   26.3799  -14.4999 H   0  0  0  0  0  0  0  0  0  0  0  0
   43.8510   23.8588  -14.8502 H   0  0  0  0  0  0  0  0  0  0  0  0
   41.9556   25.5658  -16.1024 H   0  0  0  0  0  0  0  0  0  0  0  0
   36.9993   29.7338  -14.6726 H   0  0  0  0  0  0  0  0  0  0  0  0
   35.0147   30.3449  -16.0558 H   0  0  0  0  0  0  0  0  0  0  0  0
   34.6655   29.2767  -18.2849 H   0  0  0  0  0  0  0  0  0  0  0  0
   35.3700   27.1360  -19.5540 H   0  0  0  0  0  0  0  0  0  0  0  0
   40.4890   25.0830  -18.1880 H   0  0  0  0  0  0  0  0  0  0  0  0
   40.0176   28.1442  -13.2351 H   0  0  0  0  0  0  0  0  0  0  0  0
   41.8572   27.7290  -11.6207 H   0  0  0  0  0  0  0  0  0  0  0  0
  1  2  2  0
  2  3  1  0
  3  4  2  0
  4  5  1  0
  5  6  1  0
  6  7  1  0
  7  8  1  0
  8  9  2  0
  9 10  1  0
 10 11  2  0
 11 12  1  0
 12 13  1  0
 12 14  2  0
 14 15  1  0
 15 16  2  0
 15 17  1  0
 17 18  1  0
  5 19  2  0
 19 20  1  0
 20 21  2  0
 21 22  1  0
 22 23  1  0
 22 24  1  0
 22 25  1  0
 21  3  1  0
 17  6  2  0
 14  8  1  0
  1 26  1  0
  1 27  1  0
  2 28  1  0
  4 29  1  0
  9 30  1  0
 10 31  1  0
 11 32  1  0
 13 33  1  0
 18 34  1  0
 19 35  1  0
 20 36  1  0
M  END
>  <meeko>  (5) 
{"is_sidechain": [false], "free_energy": -4.272, "intermolecular_energy": -6.146, "internal_energy": 0.939}

$$$$
