cand_007_out
     RDKit          3D

 35 37  0  0  0  0  0  0  0  0999 V2000
   38.5840   26.6470  -18.6550 O   0  0  0  0  0  0  0  0  0  0  0  0
   38.9470   26.9270  -17.5140 C   0  0  0  0  0  0  0  0  0  0  0  0
   40.2210   26.3930  -16.9800 C   0  0  0  0  0  0  0  0  0  0  0  0
   40.9560   25.5670  -17.8110 O   0  0  0  0  0  0  0  0  0  0  0  0
   40.5800   26.7220  -15.7250 C   0  0  0  0  0  0  0  0  0  0  0  0
   41.8200   26.2370  -15.0830 C   0  0  0  0  0  0  0  0  0  0  0  0
   42.7430   25.4410  -15.7700 C   0  0  0  0  0  0  0  0  0  0  0  0
   43.9180   25.0110  -15.1500 C   0  0  0  0  0  0  0  0  0  0  0  0
   44.2090   25.3730  -13.8230 C   0  0  0  0  0  0  0  0  0  0  0  0
   45.4910   24.8920  -13.1800 C   0  0  0  0  0  0  0  0  0  0  0  0
   46.1310   23.9600  -13.9410 F   0  0  0  0  0  0  0  0  0  0  0  0
   46.3890   25.8990  -12.9940 F   0  0  0  0  0  0  0  0  0  0  0  0
   45.3150   24.3190  -11.9580 F   0  0  0  0  0  0  0  0  0  0  0  0
   43.2950   26.1890  -13.1210 C   0  0  0  0  0  0  0  0  0  0  0  0
   43.5490   26.6110  -11.6920 C   0  0  0  0  0  0  0  0  0  0  0  0
   42.4090   26.9230  -11.0110 F   0  0  0  0  0  0  0  0  0  0  0  0
   42.1130   26.6090  -13.7630 C   0  0  0  0  0  0  0  0  0  0  0  0
   39.8190   27.5310  -14.8880 O   0  0  0  0  0  0  0  0  0  0  0  0
   38.6370   28.0440  -15.3580 C   0  0  0  0  0  0  0  0  0  0  0  0
   37.9110   28.8580  -14.4870 C   0  0  0  0  0  0  0  0  0  0  0  0
   36.6990   29.4140  -14.9020 C   0  0  0  0  0  0  0  0  0  0  0  0
   36.2130   29.1550  -16.1850 C   0  0  0  0  0  0  0  0  0  0  0  0
   36.9400   28.3430  -17.0520 C   0  0  0  0  0  0  0  0  0  0  0  0
   36.4050   28.1300  -18.2930 O   0  0  0  0  0  0  0  0  0  0  0  0
   38.1530   27.7870  -16.6360 C   0  0  0  0  0  0  0  0  0  0  0  0
   40.7660   24.6500  -17.8490 H   0  0  0  0  0  0  0  0  0  0  0  0
   42.5406   25.1503  -16.8114 H   0  0  0  0  0  0  0  0  0  0  0  0
   44.6259   24.3802  -15.7077 H   0  0  0  0  0  0  0  0  0  0  0  0
   44.0536   25.7855  -11.1686 H   0  0  0  0  0  0  0  0  0  0  0  0
   44.1676   27.5200  -11.7257 H   0  0  0  0  0  0  0  0  0  0  0  0
   41.4021   27.2448  -13.2149 H   0  0  0  0  0  0  0  0  0  0  0  0
   38.2928   29.0612  -13.4756 H   0  0  0  0  0  0  0  0  0  0  0  0
   36.1265   30.0568  -14.2172 H   0  0  0  0  0  0  0  0  0  0  0  0
   35.2573   29.5917  -16.5105 H   0  0  0  0  0  0  0  0  0  0  0  0
   36.2420   28.8550  -18.8630 H   0  0  0  0  0  0  0  0  0  0  0  0
  1  2  2  0
  2  3  1  0
  3  4  1  0
  3  5  2  0
  5  6  1  0
  6  7  2  0
  7  8  1  0
  8  9  2  0
  9 10  1  0
 10 11  1  0
 10 12  1  0
 10 13  1  0
  9 14  1  0
 14 15  1  0
 15 16  1  0
 14 17  2  0
  5 18  1  0
 18 19  1  0
 19 20  2  0
 20 21  1  0
 21 22  2  0
 22 23  1  0
 23 24  1  0
 23 25  2  0
 25  2  1  0
 17  6  1  0
 25 19  1  0
  4 26  1  0
  7 27  1  0
  8 28  1  0
 15 29  1  0
 15 30  1  0
 17 31  1  0
 20 32  1  0
 21 33  1  0
 22 34  1  0
 24 35  1  0
M  END
>  <meeko>  (1) 
{"is_sidechain": [false], "free_energy": -8.054, "intermolecular_energy": -9.937, "internal_energy": 0.248}

$$$$
cand_007_out
     RDKit          3D

 35 37  0  0  0  0  0  0  0  0999 V2000
   38.3300   29.0850  -13.0660 O   0  0  0  0  0  0  0  0  0  0  0  0
   38.9340   28.4110  -13.8970 C   0  0  0  0  0  0  0  0  0  0  0  0
   40.2300   27.7810  -13.5520 C   0  0  0  0  0  0  0  0  0  0  0  0
   40.7170   28.0000  -12.2770 O   0  0  0  0  0  0  0  0  0  0  0  0
   40.8610   27.0530  -14.4930 C   0  0  0  0  0  0  0  0  0  0  0  0
   42.1620   26.3900  -14.2660 C   0  0  0  0  0  0  0  0  0  0  0  0
   42.4930   25.1820  -14.8890 C   0  0  0  0  0  0  0  0  0  0  0  0
   43.7370   24.5840  -14.6750 C   0  0  0  0  0  0  0  0  0  0  0  0
   44.6910   25.1830  -13.8350 C   0  0  0  0  0  0  0  0  0  0  0  0
   46.0300   24.5100  -13.6250 C   0  0  0  0  0  0  0  0  0  0  0  0
   46.0060   23.1930  -13.9720 F   0  0  0  0  0  0  0  0  0  0  0  0
   47.0180   25.0730  -14.3750 F   0  0  0  0  0  0  0  0  0  0  0  0
   46.4720   24.5490  -12.3380 F   0  0  0  0  0  0  0  0  0  0  0  0
   44.3790   26.4100  -13.2110 C   0  0  0  0  0  0  0  0  0  0  0  0
   45.3610   27.1030  -12.2950 C   0  0  0  0  0  0  0  0  0  0  0  0
   46.6020   27.2480  -12.8430 F   0  0  0  0  0  0  0  0  0  0  0  0
   43.1170   26.9950  -13.4360 C   0  0  0  0  0  0  0  0  0  0  0  0
   40.3730   26.8610  -15.7810 O   0  0  0  0  0  0  0  0  0  0  0  0
   39.1730   27.4280  -16.1260 C   0  0  0  0  0  0  0  0  0  0  0  0
   38.7190   27.2030  -17.4270 C   0  0  0  0  0  0  0  0  0  0  0  0
   37.5040   27.7520  -17.8440 C   0  0  0  0  0  0  0  0  0  0  0  0
   36.7470   28.5260  -16.9640 C   0  0  0  0  0  0  0  0  0  0  0  0
   37.2030   28.7490  -15.6670 C   0  0  0  0  0  0  0  0  0  0  0  0
   36.4110   29.5170  -14.8580 O   0  0  0  0  0  0  0  0  0  0  0  0
   38.4180   28.1990  -15.2500 C   0  0  0  0  0  0  0  0  0  0  0  0
   41.2800   28.7310  -12.1100 H   0  0  0  0  0  0  0  0  0  0  0  0
   41.7646   24.6971  -15.5556 H   0  0  0  0  0  0  0  0  0  0  0  0
   43.9732   23.6309  -15.1709 H   0  0  0  0  0  0  0  0  0  0  0  0
   44.9676   28.1013  -12.0530 H   0  0  0  0  0  0  0  0  0  0  0  0
   45.4721   26.4725  -11.4005 H   0  0  0  0  0  0  0  0  0  0  0  0
   42.8746   27.9507  -12.9482 H   0  0  0  0  0  0  0  0  0  0  0  0
   39.3166   26.5949  -18.1220 H   0  0  0  0  0  0  0  0  0  0  0  0
   37.1435   27.5738  -18.8679 H   0  0  0  0  0  0  0  0  0  0  0  0
   35.7914   28.9595  -17.2940 H   0  0  0  0  0  0  0  0  0  0  0  0
   35.7720   29.1120  -14.3060 H   0  0  0  0  0  0  0  0  0  0  0  0
  1  2  2  0
  2  3  1  0
  3  4  1  0
  3  5  2  0
  5  6  1  0
  6  7  2  0
  7  8  1  0
  8  9  2  0
  9 10  1  0
 10 11  1  0
 10 12  1  0
 10 13  1  0
  9 14  1  0
 14 15  1  0
 15 16  1  0
 14 17  2  0
  5 18  1  0
 18 19  1  0
 19 20  2  0
 20 21  1  0
 21 22  2  0
 22 23  1  0
 23 24  1  0
 23 25  2  0
 25  2  1  0
 17  6  1  0
 25 19  1  0
  4 26  1  0
  7 27  1  0
  8 28  1  0
 15 29  1  0
 15 30  1  0
 17 31  1  0
 20 32  1  0
 21 33  1  0
 22 34  1  0
 24 35  1  0
M  END
>  <meeko>  (2) 
{"is_sidechain": [false], "free_energy": -7.565, "intermolecular_energy": -9.494, "internal_energy": 0.408}

$$$$
cand_007_out
     RDKit          3D

 35 37  0  0  0  0  0  0  0  0999 V2000
   41.3660   27.2810  -11.0000 O   0  0  0  0  0  0  0  0  0  0  0  0
   41.3010   27.1560  -12.2210 C   0  0  0  0  0  0  0  0  0  0  0  0
   40.1290   27.6710  -12.9660 C   0  0  0  0  0  0  0  0  0  0  0  0
   39.1270   28.2730  -12.2270 O   0  0  0  0  0  0  0  0  0  0  0  0
   40.0960   27.5110  -14.3020 C   0  0  0  0  0  0  0  0  0  0  0  0
   38.9730   27.9720  -15.1460 C   0  0  0  0  0  0  0  0  0  0  0  0
   38.2170   29.1010  -14.8150 C   0  0  0  0  0  0  0  0  0  0  0  0
   37.1730   29.5290  -15.6380 C   0  0  0  0  0  0  0  0  0  0  0  0
   36.8590   28.8430  -16.8230 C   0  0  0  0  0  0  0  0  0  0  0  0
   35.7230   29.3330  -17.6940 C   0  0  0  0  0  0  0  0  0  0  0  0
   34.5410   29.3800  -17.0200 F   0  0  0  0  0  0  0  0  0  0  0  0
   35.9340   30.5940  -18.1630 F   0  0  0  0  0  0  0  0  0  0  0  0
   35.4960   28.5600  -18.7920 F   0  0  0  0  0  0  0  0  0  0  0  0
   37.6230   27.7100  -17.1800 C   0  0  0  0  0  0  0  0  0  0  0  0
   37.3350   26.9270  -18.4400 C   0  0  0  0  0  0  0  0  0  0  0  0
   38.4560   26.6230  -19.1560 F   0  0  0  0  0  0  0  0  0  0  0  0
   38.6690   27.2910  -16.3350 C   0  0  0  0  0  0  0  0  0  0  0  0
   41.0970   26.8790  -15.0320 O   0  0  0  0  0  0  0  0  0  0  0  0
   42.1970   26.3980  -14.3690 C   0  0  0  0  0  0  0  0  0  0  0  0
   43.1810   25.7790  -15.1420 C   0  0  0  0  0  0  0  0  0  0  0  0
   44.3260   25.2660  -14.5300 C   0  0  0  0  0  0  0  0  0  0  0  0
   44.4880   25.3700  -13.1480 C   0  0  0  0  0  0  0  0  0  0  0  0
   43.5050   25.9870  -12.3790 C   0  0  0  0  0  0  0  0  0  0  0  0
   43.7270   26.0550  -11.0300 O   0  0  0  0  0  0  0  0  0  0  0  0
   42.3580   26.5010  -12.9910 C   0  0  0  0  0  0  0  0  0  0  0  0
   39.3410   28.7540  -11.4510 H   0  0  0  0  0  0  0  0  0  0  0  0
   38.4474   29.6587  -13.8953 H   0  0  0  0  0  0  0  0  0  0  0  0
   36.5880   30.4163  -15.3542 H   0  0  0  0  0  0  0  0  0  0  0  0
   36.8342   25.9883  -18.1606 H   0  0  0  0  0  0  0  0  0  0  0  0
   36.7027   27.5606  -19.0793 H   0  0  0  0  0  0  0  0  0  0  0  0
   39.2626   26.4079  -16.6139 H   0  0  0  0  0  0  0  0  0  0  0  0
   43.0543   25.6956  -16.2315 H   0  0  0  0  0  0  0  0  0  0  0  0
   45.1021   24.7788  -15.1385 H   0  0  0  0  0  0  0  0  0  0  0  0
   45.3907   24.9653  -12.6670 H   0  0  0  0  0  0  0  0  0  0  0  0
   43.0170   26.2330  -10.4470 H   0  0  0  0  0  0  0  0  0  0  0  0
  1  2  2  0
  2  3  1  0
  3  4  1  0
  3  5  2  0
  5  6  1  0
  6  7  2  0
  7  8  1  0
  8  9  2  0
  9 10  1  0
 10 11  1  0
 10 12  1  0
 10 13  1  0
  9 14  1  0
 14 15  1  0
 15 16  1  0
 14 17  2  0
  5 18  1  0
 18 19  1  0
 19 20  2  0
 20 21  1  0
 21 22  2  0
 22 23  1  0
 23 24  1  0
 23 25  2  0
 25  2  1  0
 17  6  1  0
 25 19  1  0
  4 26  1  0
  7 27  1  0
  8 28  1  0
 15 29  1  0
 15 30  1  0
 17 31  1  0
 20 32  1  0
 21 33  1  0
 22 34  1  0
 24 35  1  0
M  END
>  <meeko>  (3) 
{"is_sidechain": [false], "free_energy": -6.967, "intermolecular_energy": -8.868, "internal_energy": 0.52}

$$$$
cand_007_out
     RDKit          3D

 35 37  0  0  0  0  0  0  0  0999 V2000
   38.6640   26.7220  -18.2780 O   0  0  0  0  0  0  0  0  0  0  0  0
   39.1050   26.9590  -17.1550 C   0  0  0  0  0  0  0  0  0  0  0  0
   40.3990   26.3830  -16.7200 C   0  0  0  0  0  0  0  0  0  0  0  0
   41.0610   25.5700  -17.6220 O   0  0  0  0  0  0  0  0  0  0  0  0
   40.8440   26.6660  -15.4820 C   0  0  0  0  0  0  0  0  0  0  0  0
   42.1120   26.1380  -14.9370 C   0  0  0  0  0  0  0  0  0  0  0  0
   42.6630   24.9330  -15.3860 C   0  0  0  0  0  0  0  0  0  0  0  0
   43.8730   24.4640  -14.8700 C   0  0  0  0  0  0  0  0  0  0  0  0
   44.5720   25.1910  -13.8920 C   0  0  0  0  0  0  0  0  0  0  0  0
   45.8810   24.6560  -13.3540 C   0  0  0  0  0  0  0  0  0  0  0  0
   46.8040   25.6400  -13.1700 F   0  0  0  0  0  0  0  0  0  0  0  0
   45.7370   24.0510  -12.1430 F   0  0  0  0  0  0  0  0  0  0  0  0
   46.4740   23.7340  -14.1620 F   0  0  0  0  0  0  0  0  0  0  0  0
   44.0380   26.4170  -13.4390 C   0  0  0  0  0  0  0  0  0  0  0  0
   44.7400   27.2450  -12.3880 C   0  0  0  0  0  0  0  0  0  0  0  0
   45.9670   27.6920  -12.7830 F   0  0  0  0  0  0  0  0  0  0  0  0
   42.8140   26.8720  -13.9680 C   0  0  0  0  0  0  0  0  0  0  0  0
   40.1560   27.4640  -14.5750 O   0  0  0  0  0  0  0  0  0  0  0  0
   38.9580   28.0150  -14.9520 C   0  0  0  0  0  0  0  0  0  0  0  0
   38.3060   28.8160  -14.0120 C   0  0  0  0  0  0  0  0  0  0  0  0
   37.0820   29.4080  -14.3320 C   0  0  0  0  0  0  0  0  0  0  0  0
   36.5100   29.1980  -15.5870 C   0  0  0  0  0  0  0  0  0  0  0  0
   37.1620   28.3990  -16.5230 C   0  0  0  0  0  0  0  0  0  0  0  0
   36.5450   28.2360  -17.7330 O   0  0  0  0  0  0  0  0  0  0  0  0
   38.3870   27.8070  -16.2030 C   0  0  0  0  0  0  0  0  0  0  0  0
   41.6350   25.9470  -18.2590 H   0  0  0  0  0  0  0  0  0  0  0  0
   42.1369   24.3479  -16.1547 H   0  0  0  0  0  0  0  0  0  0  0  0
   44.2848   23.5114  -15.2347 H   0  0  0  0  0  0  0  0  0  0  0  0
   44.1107   28.1158  -12.1519 H   0  0  0  0  0  0  0  0  0  0  0  0
   44.8959   26.5965  -11.5133 H   0  0  0  0  0  0  0  0  0  0  0  0
   42.3980   27.8264  -13.6128 H   0  0  0  0  0  0  0  0  0  0  0  0
   38.7555   28.9804  -13.0216 H   0  0  0  0  0  0  0  0  0  0  0  0
   36.5683   30.0408  -13.5933 H   0  0  0  0  0  0  0  0  0  0  0  0
   35.5450   29.6630  -15.8370 H   0  0  0  0  0  0  0  0  0  0  0  0
   35.8270   27.6420  -17.8160 H   0  0  0  0  0  0  0  0  0  0  0  0
  1  2  2  0
  2  3  1  0
  3  4  1  0
  3  5  2  0
  5  6  1  0
  6  7  2  0
  7  8  1  0
  8  9  2  0
  9 10  1  0
 10 11  1  0
 10 12  1  0
 10 13  1  0
  9 14  1  0
 14 15  1  0
 15 16  1  0
 14 17  2  0
  5 18  1  0
 18 19  1  0
 19 20  2  0
 20 21  1  0
 21 22  2  0
 22 23  1  0
 23 24  1  0
 23 25  2  0
 25  2  1  0
 17  6  1  0
 25 19  1  0
  4 26  1  0
  7 27  1  0
  8 28  1  0
 15 29  1  0
 15 30  1  0
 17 31  1  0
 20 32  1  0
 21 33  1  0
 22 34  1  0
 24 35  1  0
M  END
>  <meeko>  (4) 
{"is_sidechain": [false], "free_energy": -6.559, "intermolecular_energy": -8.595, "internal_energy": 0.75}

$$$$
