cand_055_out
     RDKit          3D

 41 43  0  0  0  0  0  0  0  0999 V2000
   47.3240   26.0790  -14.1680 C   0  0  0  0  0  0  0  0  0  0  0  0
   46.6860   24.7070  -14.0300 C   0  0  0  0  0  0  0  0  0  0  0  0
   45.5210   24.7300  -13.0380 C   0  0  0  0  0  0  0  0  0  0  0  0
   44.2550   25.2630  -13.6700 C   0  0  0  0  0  0  0  0  0  0  0  0
   43.6210   24.4850  -14.6530 C   0  0  0  0  0  0  0  0  0  0  0  0
   42.4540   24.9270  -15.2800 C   0  0  0  0  0  0  0  0  0  0  0  0
   41.8840   26.1570  -14.9390 C   0  0  0  0  0  0  0  0  0  0  0  0
   40.6630   26.6610  -15.6040 C   0  0  0  0  0  0  0  0  0  0  0  0
   39.8840   27.4560  -14.7710 O   0  0  0  0  0  0  0  0  0  0  0  0
   38.7200   27.9900  -15.2620 C   0  0  0  0  0  0  0  0  0  0  0  0
   37.9770   28.7940  -14.3960 C   0  0  0  0  0  0  0  0  0  0  0  0
   36.7810   29.3680  -14.8330 C   0  0  0  0  0  0  0  0  0  0  0  0
   36.3270   29.1360  -16.1330 C   0  0  0  0  0  0  0  0  0  0  0  0
   37.0710   28.3340  -16.9950 C   0  0  0  0  0  0  0  0  0  0  0  0
   36.5680   28.1470  -18.2530 O   0  0  0  0  0  0  0  0  0  0  0  0
   38.2680   27.7610  -16.5570 C   0  0  0  0  0  0  0  0  0  0  0  0
   39.0790   26.9110  -17.4310 C   0  0  0  0  0  0  0  0  0  0  0  0
   38.7430   26.6550  -18.5850 O   0  0  0  0  0  0  0  0  0  0  0  0
   40.3360   26.3580  -16.8740 C   0  0  0  0  0  0  0  0  0  0  0  0
   41.0870   25.5460  -17.7040 O   0  0  0  0  0  0  0  0  0  0  0  0
   42.5250   26.9420  -13.9680 C   0  0  0  0  0  0  0  0  0  0  0  0
   43.7060   26.5150  -13.3310 C   0  0  0  0  0  0  0  0  0  0  0  0
   44.3280   27.4010  -12.2880 C   0  0  0  0  0  0  0  0  0  0  0  0
   47.5177   26.4955  -13.1685 H   0  0  0  0  0  0  0  0  0  0  0  0
   48.2725   25.9887  -14.7177 H   0  0  0  0  0  0  0  0  0  0  0  0
   46.6437   26.7461  -14.7177 H   0  0  0  0  0  0  0  0  0  0  0  0
   46.3124   24.3855  -15.0134 H   0  0  0  0  0  0  0  0  0  0  0  0
   47.4471   24.0076  -13.6538 H   0  0  0  0  0  0  0  0  0  0  0  0
   45.3369   23.7058  -12.6814 H   0  0  0  0  0  0  0  0  0  0  0  0
   45.7939   25.3957  -12.2059 H   0  0  0  0  0  0  0  0  0  0  0  0
   44.0507   23.5120  -14.9334 H   0  0  0  0  0  0  0  0  0  0  0  0
   41.9787   24.3012  -16.0497 H   0  0  0  0  0  0  0  0  0  0  0  0
   38.3328   28.9752  -13.3710 H   0  0  0  0  0  0  0  0  0  0  0  0
   36.1959   30.0037  -14.1522 H   0  0  0  0  0  0  0  0  0  0  0  0
   35.3835   29.5858  -16.4756 H   0  0  0  0  0  0  0  0  0  0  0  0
   35.7560   27.6940  -18.3710 H   0  0  0  0  0  0  0  0  0  0  0  0
   41.4680   25.8990  -18.4840 H   0  0  0  0  0  0  0  0  0  0  0  0
   42.0933   27.9169  -13.6974 H   0  0  0  0  0  0  0  0  0  0  0  0
   44.0663   27.0282  -11.2868 H   0  0  0  0  0  0  0  0  0  0  0  0
   45.4215   27.3955  -12.4070 H   0  0  0  0  0  0  0  0  0  0  0  0
   43.9514   28.4276  -12.4070 H   0  0  0  0  0  0  0  0  0  0  0  0
  1  2  1  0
  2  3  1  0
  3  4  1  0
  4  5  2  0
  5  6  1  0
  6  7  2  0
  7  8  1  0
  8  9  1  0
  9 10  1  0
 10 11  2  0
 11 12  1  0
 12 13  2  0
 13 14  1  0
 14 15  1  0
 14 16  2  0
 16 17  1  0
 17 18  2  0
 17 19  1  0
 19 20  1  0
  7 21  1  0
 21 22  2  0
 22 23  1  0
 22  4  1  0
 19  8  2  0
 16 10  1  0
  1 24  1  0
  1 25  1  0
  1 26  1  0
  2 27  1  0
  2 28  1  0
  3 29  1  0
  3 30  1  0
  5 31  1  0
  6 32  1  0
 11 33  1  0
 12 34  1  0
 13 35  1  0
 15 36  1  0
 20 37  1  0
 21 38  1  0
 23 39  1  0
 23 40  1  0
 23 41  1  0
M  END
>  <meeko>  (1) 
{"is_sidechain": [false], "free_energy": -8.658, "intermolecular_energy": -10.683, "internal_energy": -0.254}

$$$$
cand_055_out
     RDKit          3D

 41 43  0  0  0  0  0  0  0  0999 V2000
   47.7030   26.2230  -14.4350 C   0  0  0  0  0  0  0  0  0  0  0  0
   47.0040   24.8750  -14.5070 C   0  0  0  0  0  0  0  0  0  0  0  0
   46.0270   24.6910  -13.3440 C   0  0  0  0  0  0  0  0  0  0  0  0
   44.6860   25.3300  -13.6290 C   0  0  0  0  0  0  0  0  0  0  0  0
   43.8140   24.6810  -14.5190 C   0  0  0  0  0  0  0  0  0  0  0  0
   42.5660   25.2260  -14.8300 C   0  0  0  0  0  0  0  0  0  0  0  0
   42.1530   26.4310  -14.2570 C   0  0  0  0  0  0  0  0  0  0  0  0
   40.8470   27.0430  -14.5880 C   0  0  0  0  0  0  0  0  0  0  0  0
   40.4230   26.7470  -15.8780 O   0  0  0  0  0  0  0  0  0  0  0  0
   39.2260   27.2510  -16.3150 C   0  0  0  0  0  0  0  0  0  0  0  0
   38.8320   26.9170  -17.6120 C   0  0  0  0  0  0  0  0  0  0  0  0
   37.6240   27.3990  -18.1200 C   0  0  0  0  0  0  0  0  0  0  0  0
   36.8100   28.2160  -17.3330 C   0  0  0  0  0  0  0  0  0  0  0  0
   37.2050   28.5470  -16.0390 C   0  0  0  0  0  0  0  0  0  0  0  0
   36.3610   29.3520  -15.3230 O   0  0  0  0  0  0  0  0  0  0  0  0
   38.4130   28.0640  -15.5310 C   0  0  0  0  0  0  0  0  0  0  0  0
   38.8650   28.3890  -14.1770 C   0  0  0  0  0  0  0  0  0  0  0  0
   38.2080   29.1070  -13.4270 O   0  0  0  0  0  0  0  0  0  0  0  0
   40.1580   27.8200  -13.7320 C   0  0  0  0  0  0  0  0  0  0  0  0
   40.5810   28.1450  -12.4550 O   0  0  0  0  0  0  0  0  0  0  0  0
   43.0290   27.0880  -13.3800 C   0  0  0  0  0  0  0  0  0  0  0  0
   44.2940   26.5570  -13.0610 C   0  0  0  0  0  0  0  0  0  0  0  0
   45.1740   27.3070  -12.1000 C   0  0  0  0  0  0  0  0  0  0  0  0
   47.8490   26.5045  -13.3817 H   0  0  0  0  0  0  0  0  0  0  0  0
   48.6802   26.1565  -14.9356 H   0  0  0  0  0  0  0  0  0  0  0  0
   47.0856   26.9834  -14.9356 H   0  0  0  0  0  0  0  0  0  0  0  0
   46.4491   24.8095  -15.4545 H   0  0  0  0  0  0  0  0  0  0  0  0
   47.7672   24.0852  -14.4468 H   0  0  0  0  0  0  0  0  0  0  0  0
   45.8788   23.6149  -13.1706 H   0  0  0  0  0  0  0  0  0  0  0  0
   46.4563   25.1795  -12.4569 H   0  0  0  0  0  0  0  0  0  0  0  0
   44.1187   23.7289  -14.9781 H   0  0  0  0  0  0  0  0  0  0  0  0
   41.9022   24.7012  -15.5328 H   0  0  0  0  0  0  0  0  0  0  0  0
   39.4729   26.2744  -18.2335 H   0  0  0  0  0  0  0  0  0  0  0  0
   37.3132   27.1347  -19.1416 H   0  0  0  0  0  0  0  0  0  0  0  0
   35.8592   28.5973  -17.7339 H   0  0  0  0  0  0  0  0  0  0  0  0
   35.4350   29.2150  -15.3660 H   0  0  0  0  0  0  0  0  0  0  0  0
   39.9960   28.0470  -11.7300 H   0  0  0  0  0  0  0  0  0  0  0  0
   42.7199   28.0428  -12.9297 H   0  0  0  0  0  0  0  0  0  0  0  0
   44.8841   27.0599  -11.0681 H   0  0  0  0  0  0  0  0  0  0  0  0
   46.2235   27.0213  -12.2644 H   0  0  0  0  0  0  0  0  0  0  0  0
   45.0583   28.3885  -12.2644 H   0  0  0  0  0  0  0  0  0  0  0  0
  1  2  1  0
  2  3  1  0
  3  4  1  0
  4  5  2  0
  5  6  1  0
  6  7  2  0
  7  8  1  0
  8  9  1  0
  9 10  1  0
 10 11  2  0
 11 12  1  0
 12 13  2  0
 13 14  1  0
 14 15  1  0
 14 16  2  0
 16 17  1  0
 17 18  2  0
 17 19  1  0
 19 20  1  0
  7 21  1  0
 21 22  2  0
 22 23  1  0
 22  4  1  0
 19  8  2  0
 16 10  1  0
  1 24  1  0
  1 25  1  0
  1 26  1  0
  2 27  1  0
  2 28  1  0
  3 29  1  0
  3 30  1  0
  5 31  1  0
  6 32  1  0
 11 33  1  0
 12 34  1  0
 13 35  1  0
 15 36  1  0
 20 37  1  0
 21 38  1  0
 23 39  1  0
 23 40  1  0
 23 41  1  0
M  END
>  <meeko>  (2) 
{"is_sidechain": [false], "free_energy": -8.5, "intermolecular_energy": -10.59, "internal_energy": -0.153}

$$$$
cand_055_out
     RDKit          3D

 41 43  0  0  0  0  0  0  0  0999 V2000
   34.2450   30.1340  -18.8910 C   0  0  0  0  0  0  0  0  0  0  0  0
   35.3490   29.7630  -17.9150 C   0  0  0  0  0  0  0  0  0  0  0  0
   36.0150   28.4410  -18.3010 C   0  0  0  0  0  0  0  0  0  0  0  0
   37.1280   28.0710  -17.3460 C   0  0  0  0  0  0  0  0  0  0  0  0
   37.2580   28.8070  -16.1560 C   0  0  0  0  0  0  0  0  0  0  0  0
   38.2720   28.5190  -15.2390 C   0  0  0  0  0  0  0  0  0  0  0  0
   39.1810   27.4860  -15.4830 C   0  0  0  0  0  0  0  0  0  0  0  0
   40.2780   27.1760  -14.5410 C   0  0  0  0  0  0  0  0  0  0  0  0
   41.3610   26.5600  -15.1570 O   0  0  0  0  0  0  0  0  0  0  0  0
   42.4500   26.2170  -14.3980 C   0  0  0  0  0  0  0  0  0  0  0  0
   43.5200   25.6140  -15.0610 C   0  0  0  0  0  0  0  0  0  0  0  0
   44.6600   25.2380  -14.3460 C   0  0  0  0  0  0  0  0  0  0  0  0
   44.7290   25.4640  -12.9690 C   0  0  0  0  0  0  0  0  0  0  0  0
   43.6600   26.0670  -12.3110 C   0  0  0  0  0  0  0  0  0  0  0  0
   43.7930   26.2580  -10.9630 O   0  0  0  0  0  0  0  0  0  0  0  0
   42.5200   26.4430  -13.0270 C   0  0  0  0  0  0  0  0  0  0  0  0
   41.3740   27.0780  -12.3740 C   0  0  0  0  0  0  0  0  0  0  0  0
   41.3570   27.3040  -11.1660 O   0  0  0  0  0  0  0  0  0  0  0  0
   40.2180   27.4450  -13.2240 C   0  0  0  0  0  0  0  0  0  0  0  0
   39.1360   28.0330  -12.5930 O   0  0  0  0  0  0  0  0  0  0  0  0
   39.0610   26.7610  -16.6780 C   0  0  0  0  0  0  0  0  0  0  0  0
   38.0500   27.0420  -17.6170 C   0  0  0  0  0  0  0  0  0  0  0  0
   37.9710   26.2120  -18.8680 C   0  0  0  0  0  0  0  0  0  0  0  0
   33.3472   30.4357  -18.3316 H   0  0  0  0  0  0  0  0  0  0  0  0
   34.5804   30.9688  -19.5240 H   0  0  0  0  0  0  0  0  0  0  0  0
   34.0082   29.2661  -19.5240 H   0  0  0  0  0  0  0  0  0  0  0  0
   36.1081   30.5591  -17.9139 H   0  0  0  0  0  0  0  0  0  0  0  0
   34.9031   29.6471  -16.9161 H   0  0  0  0  0  0  0  0  0  0  0  0
   35.2569   27.6441  -18.2896 H   0  0  0  0  0  0  0  0  0  0  0  0
   36.4511   28.5587  -19.3040 H   0  0  0  0  0  0  0  0  0  0  0  0
   36.5507   29.6222  -15.9432 H   0  0  0  0  0  0  0  0  0  0  0  0
   38.3557   29.1112  -14.3158 H   0  0  0  0  0  0  0  0  0  0  0  0
   43.4659   25.4350  -16.1450 H   0  0  0  0  0  0  0  0  0  0  0  0
   45.5041   24.7635  -14.8678 H   0  0  0  0  0  0  0  0  0  0  0  0
   45.6258   25.1663  -12.4058 H   0  0  0  0  0  0  0  0  0  0  0  0
   43.6570   25.5430  -10.3730 H   0  0  0  0  0  0  0  0  0  0  0  0
   39.2720   28.7400  -11.9930 H   0  0  0  0  0  0  0  0  0  0  0  0
   39.7758   25.9514  -16.8871 H   0  0  0  0  0  0  0  0  0  0  0  0
   37.8700   25.1505  -18.5980 H   0  0  0  0  0  0  0  0  0  0  0  0
   37.0985   26.5242  -19.4607 H   0  0  0  0  0  0  0  0  0  0  0  0
   38.8867   26.3540  -19.4607 H   0  0  0  0  0  0  0  0  0  0  0  0
  1  2  1  0
  2  3  1  0
  3  4  1  0
  4  5  2  0
  5  6  1  0
  6  7  2  0
  7  8  1  0
  8  9  1  0
  9 10  1  0
 10 11  2  0
 11 12  1  0
 12 13  2  0
 13 14  1  0
 14 15  1  0
 14 16  2  0
 16 17  1  0
 17 18  2  0
 17 19  1  0
 19 20  1  0
  7 21  1  0
 21 22  2  0
 22 23  1  0
 22  4  1  0
 19  8  2  0
 16 10  1  0
  1 24  1  0
  1 25  1  0
  1 26  1  0
  2 27  1  0
  2 28  1  0
  3 29  1  0
  3 30  1  0
  5 31  1  0
  6 32  1  0
 11 33  1  0
 12 34  1  0
 13 35  1  0
 15 36  1  0
 20 37  1  0
 21 38  1  0
 23 39  1  0
 23 40  1  0
 23 41  1  0
M  END
>  <meeko>  (3) 
{"is_sidechain": [false], "free_energy": -5.967, "intermolecular_energy": -7.588, "internal_energy": -0.029}

$$$$
