cand_001_out
     RDKit          3D

 45 48  0  0  0  0  0  0  0  0999 V2000
   46.2450   24.0400  -13.4680 C   0  0  0  0  0  0  0  0  0  0  0  0
   44.9710   24.8010  -13.7110 C   0  0  0  0  0  0  0  0  0  0  0  0
   43.9090   24.1460  -14.3530 C   0  0  0  0  0  0  0  0  0  0  0  0
   42.6920   24.7950  -14.5760 C   0  0  0  0  0  0  0  0  0  0  0  0
   42.4980   26.1140  -14.1520 C   0  0  0  0  0  0  0  0  0  0  0  0
   41.2080   26.7890  -14.4100 C   0  0  0  0  0  0  0  0  0  0  0  0
   40.7330   26.5710  -15.6980 O   0  0  0  0  0  0  0  0  0  0  0  0
   39.5420   27.1420  -16.0700 C   0  0  0  0  0  0  0  0  0  0  0  0
   39.1090   26.9100  -17.3770 C   0  0  0  0  0  0  0  0  0  0  0  0
   37.9050   27.4590  -17.8190 C   0  0  0  0  0  0  0  0  0  0  0  0
   37.1330   28.2400  -16.9570 C   0  0  0  0  0  0  0  0  0  0  0  0
   37.5670   28.4700  -15.6540 C   0  0  0  0  0  0  0  0  0  0  0  0
   36.7620   29.2430  -14.8630 O   0  0  0  0  0  0  0  0  0  0  0  0
   38.7730   27.9200  -15.2120 C   0  0  0  0  0  0  0  0  0  0  0  0
   39.2640   28.1370  -13.8500 C   0  0  0  0  0  0  0  0  0  0  0  0
   38.6390   28.8060  -13.0300 O   0  0  0  0  0  0  0  0  0  0  0  0
   40.5590   27.5160  -13.4830 C   0  0  0  0  0  0  0  0  0  0  0  0
   41.0080   27.7170  -12.1900 O   0  0  0  0  0  0  0  0  0  0  0  0
   43.5590   26.7700  -13.5150 C   0  0  0  0  0  0  0  0  0  0  0  0
   44.7940   26.1300  -13.2760 C   0  0  0  0  0  0  0  0  0  0  0  0
   45.8770   26.9040  -12.5470 C   0  0  0  0  0  0  0  0  0  0  0  0
   47.1830   27.0400  -13.2990 C   0  0  0  0  0  0  0  0  0  0  0  0
   47.2860   26.5810  -14.6210 C   0  0  0  0  0  0  0  0  0  0  0  0
   48.4790   26.7230  -15.3320 C   0  0  0  0  0  0  0  0  0  0  0  0
   49.5800   27.3320  -14.7350 C   0  0  0  0  0  0  0  0  0  0  0  0
   49.4880   27.8040  -13.4270 C   0  0  0  0  0  0  0  0  0  0  0  0
   48.2960   27.6640  -12.7150 C   0  0  0  0  0  0  0  0  0  0  0  0
   46.4118   23.9404  -12.3853 H   0  0  0  0  0  0  0  0  0  0  0  0
   46.1670   23.0404  -13.9205 H   0  0  0  0  0  0  0  0  0  0  0  0
   47.0882   24.5825  -13.9205 H   0  0  0  0  0  0  0  0  0  0  0  0
   44.0366   23.1054  -14.6859 H   0  0  0  0  0  0  0  0  0  0  0  0
   41.8779   24.2633  -15.0903 H   0  0  0  0  0  0  0  0  0  0  0  0
   39.7165   26.2951  -18.0574 H   0  0  0  0  0  0  0  0  0  0  0  0
   37.5634   27.2762  -18.8485 H   0  0  0  0  0  0  0  0  0  0  0  0
   36.1839   28.6727  -17.3063 H   0  0  0  0  0  0  0  0  0  0  0  0
   37.0000   29.4090  -13.9720 H   0  0  0  0  0  0  0  0  0  0  0  0
   40.7830   28.5040  -11.7330 H   0  0  0  0  0  0  0  0  0  0  0  0
   43.4260   27.8131  -13.1920 H   0  0  0  0  0  0  0  0  0  0  0  0
   45.4946   27.9148  -12.3419 H   0  0  0  0  0  0  0  0  0  0  0  0
   46.1050   26.3299  -11.6368 H   0  0  0  0  0  0  0  0  0  0  0  0
   46.4186   26.1049  -15.1016 H   0  0  0  0  0  0  0  0  0  0  0  0
   48.5495   26.3532  -16.3656 H   0  0  0  0  0  0  0  0  0  0  0  0
   50.5206   27.4403  -15.2949 H   0  0  0  0  0  0  0  0  0  0  0  0
   50.3561   28.2875  -12.9552 H   0  0  0  0  0  0  0  0  0  0  0  0
   48.2282   28.0465  -11.6859 H   0  0  0  0  0  0  0  0  0  0  0  0
  1  2  1  0
  2  3  2  0
  3  4  1  0
  4  5  2  0
  5  6  1  0
  6  7  1  0
  7  8  1  0
  8  9  2  0
  9 10  1  0
 10 11  2  0
 11 12  1  0
 12 13  1  0
 12 14  2  0
 14 15  1  0
 15 16  2  0
 15 17  1  0
 17 18  1  0
  5 19  1  0
 19 20  2  0
 20 21  1  0
 21 22  1  0
 22 23  2  0
 23 24  1  0
 24 25  2  0
 25 26  1  0
 26 27  2  0
 20  2  1  0
 27 22  1  0
 17  6  2  0
 14  8  1  0
  1 28  1  0
  1 29  1  0
  1 30  1  0
  3 31  1  0
  4 32  1  0
  9 33  1  0
 10 34  1  0
 11 35  1  0
 13 36  1  0
 18 37  1  0
 19 38  1  0
 21 39  1  0
 21 40  1  0
 23 41  1  0
 24 42  1  0
 25 43  1  0
 26 44  1  0
 27 45  1  0
M  END
>  <meeko>  (1) 
{"is_sidechain": [false], "free_energy": -7.335, "intermolecular_energy": -9.05, "internal_energy": 0.549}

$$$$
cand_001_out
     RDKit          3D

 45 48  0  0  0  0  0  0  0  0999 V2000
   45.7660   24.2060  -13.0730 C   0  0  0  0  0  0  0  0  0  0  0  0
   44.5540   24.8550  -13.6820 C   0  0  0  0  0  0  0  0  0  0  0  0
   43.5880   24.0390  -14.2900 C   0  0  0  0  0  0  0  0  0  0  0  0
   42.4280   24.5860  -14.8440 C   0  0  0  0  0  0  0  0  0  0  0  0
   42.1950   25.9640  -14.7950 C   0  0  0  0  0  0  0  0  0  0  0  0
   40.9680   26.5270  -15.3990 C   0  0  0  0  0  0  0  0  0  0  0  0
   40.2510   27.3280  -14.5170 O   0  0  0  0  0  0  0  0  0  0  0  0
   39.0890   27.9150  -14.9510 C   0  0  0  0  0  0  0  0  0  0  0  0
   38.3930   28.6980  -14.0290 C   0  0  0  0  0  0  0  0  0  0  0  0
   37.2040   29.3260  -14.4060 C   0  0  0  0  0  0  0  0  0  0  0  0
   36.7110   29.1700  -15.7030 C   0  0  0  0  0  0  0  0  0  0  0  0
   37.4070   28.3880  -16.6210 C   0  0  0  0  0  0  0  0  0  0  0  0
   36.8690   28.2790  -17.8730 O   0  0  0  0  0  0  0  0  0  0  0  0
   38.5970   27.7600  -16.2430 C   0  0  0  0  0  0  0  0  0  0  0  0
   39.3600   26.9290  -17.1760 C   0  0  0  0  0  0  0  0  0  0  0  0
   38.9950   26.7500  -18.3360 O   0  0  0  0  0  0  0  0  0  0  0  0
   40.6040   26.3010  -16.6740 C   0  0  0  0  0  0  0  0  0  0  0  0
   41.3240   25.5290  -17.5690 O   0  0  0  0  0  0  0  0  0  0  0  0
   43.1610   26.7810  -14.1920 C   0  0  0  0  0  0  0  0  0  0  0  0
   44.3360   26.2470  -13.6230 C   0  0  0  0  0  0  0  0  0  0  0  0
   45.3120   27.2010  -12.9590 C   0  0  0  0  0  0  0  0  0  0  0  0
   46.7320   27.1290  -13.4780 C   0  0  0  0  0  0  0  0  0  0  0  0
   46.9870   26.6230  -14.7620 C   0  0  0  0  0  0  0  0  0  0  0  0
   48.2910   26.5730  -15.2610 C   0  0  0  0  0  0  0  0  0  0  0  0
   49.3520   27.0360  -14.4870 C   0  0  0  0  0  0  0  0  0  0  0  0
   49.1120   27.5520  -13.2160 C   0  0  0  0  0  0  0  0  0  0  0  0
   47.8090   27.6040  -12.7160 C   0  0  0  0  0  0  0  0  0  0  0  0
   45.6913   24.2460  -11.9763 H   0  0  0  0  0  0  0  0  0  0  0  0
   45.8227   23.1568  -13.3986 H   0  0  0  0  0  0  0  0  0  0  0  0
   46.6707   24.7404  -13.3986 H   0  0  0  0  0  0  0  0  0  0  0  0
   43.7466   22.9513  -14.3311 H   0  0  0  0  0  0  0  0  0  0  0  0
   41.6903   23.9259  -15.3237 H   0  0  0  0  0  0  0  0  0  0  0  0
   38.7804   28.8203  -13.0068 H   0  0  0  0  0  0  0  0  0  0  0  0
   36.6552   29.9443  -13.6803 H   0  0  0  0  0  0  0  0  0  0  0  0
   35.7740   29.6643  -15.9992 H   0  0  0  0  0  0  0  0  0  0  0  0
   35.9720   28.0300  -17.9780 H   0  0  0  0  0  0  0  0  0  0  0  0
   42.2240   25.3340  -17.4000 H   0  0  0  0  0  0  0  0  0  0  0  0
   42.9984   27.8685  -14.1616 H   0  0  0  0  0  0  0  0  0  0  0  0
   44.9444   28.2264  -13.1124 H   0  0  0  0  0  0  0  0  0  0  0  0
   45.3569   26.9063  -11.9002 H   0  0  0  0  0  0  0  0  0  0  0  0
   46.1524   26.2624  -15.3812 H   0  0  0  0  0  0  0  0  0  0  0  0
   48.4797   26.1676  -16.2660 H   0  0  0  0  0  0  0  0  0  0  0  0
   50.3788   26.9942  -14.8792 H   0  0  0  0  0  0  0  0  0  0  0  0
   49.9498   27.9191  -12.6050 H   0  0  0  0  0  0  0  0  0  0  0  0
   47.6259   28.0215  -11.7149 H   0  0  0  0  0  0  0  0  0  0  0  0
  1  2  1  0
  2  3  2  0
  3  4  1  0
  4  5  2  0
  5  6  1  0
  6  7  1  0
  7  8  1  0
  8  9  2  0
  9 10  1  0
 10 11  2  0
 11 12  1  0
 12 13  1  0
 12 14  2  0
 14 15  1  0
 15 16  2  0
 15 17  1  0
 17 18  1  0
  5 19  1  0
 19 20  2  0
 20 21  1  0
 21 22  1  0
 22 23  2  0
 23 24  1  0
 24 25  2  0
 25 26  1  0
 26 27  2  0
 20  2  1  0
 27 22  1  0
 17  6  2  0
 14  8  1  0
  1 28  1  0
  1 29  1  0
  1 30  1  0
  3 31  1  0
  4 32  1  0
  9 33  1  0
 10 34  1  0
 11 35  1  0
 13 36  1  0
 18 37  1  0
 19 38  1  0
 21 39  1  0
 21 40  1  0
 23 41  1  0
 24 42  1  0
 25 43  1  0
 26 44  1  0
 27 45  1  0
M  END
>  <meeko>  (2) 
{"is_sidechain": [false], "free_energy": -6.381, "intermolecular_energy": -7.444, "internal_energy": 0.119}

$$$$
cand_001_out
     RDKit          3D

 45 48  0  0  0  0  0  0  0  0999 V2000
   44.4600   25.7630  -11.5740 C   0  0  0  0  0  0  0  0  0  0  0  0
   43.2660   26.1810  -12.3890 C   0  0  0  0  0  0  0  0  0  0  0  0
   42.3140   27.0270  -11.8010 C   0  0  0  0  0  0  0  0  0  0  0  0
   41.2020   27.4700  -12.5220 C   0  0  0  0  0  0  0  0  0  0  0  0
   41.0170   27.0900  -13.8550 C   0  0  0  0  0  0  0  0  0  0  0  0
   39.8270   27.5570  -14.5970 C   0  0  0  0  0  0  0  0  0  0  0  0
   39.6710   26.9200  -15.8230 O   0  0  0  0  0  0  0  0  0  0  0  0
   38.6040   27.2600  -16.6160 C   0  0  0  0  0  0  0  0  0  0  0  0
   38.4940   26.6070  -17.8440 C   0  0  0  0  0  0  0  0  0  0  0  0
   37.4310   26.9040  -18.6980 C   0  0  0  0  0  0  0  0  0  0  0  0
   36.4780   27.8540  -18.3240 C   0  0  0  0  0  0  0  0  0  0  0  0
   36.5890   28.5040  -17.0980 C   0  0  0  0  0  0  0  0  0  0  0  0
   35.6210   29.4210  -16.7950 O   0  0  0  0  0  0  0  0  0  0  0  0
   37.6550   28.2060  -16.2440 C   0  0  0  0  0  0  0  0  0  0  0  0
   37.8090   28.8660  -14.9460 C   0  0  0  0  0  0  0  0  0  0  0  0
   37.0080   29.7060  -14.5440 O   0  0  0  0  0  0  0  0  0  0  0  0
   38.9770   28.4840  -14.1190 C   0  0  0  0  0  0  0  0  0  0  0  0
   39.1060   29.1050  -12.8890 O   0  0  0  0  0  0  0  0  0  0  0  0
   41.9650   26.2410  -14.4410 C   0  0  0  0  0  0  0  0  0  0  0  0
   43.0970   25.7860  -13.7310 C   0  0  0  0  0  0  0  0  0  0  0  0
   44.0920   24.8980  -14.4560 C   0  0  0  0  0  0  0  0  0  0  0  0
   45.5450   25.2740  -14.2620 C   0  0  0  0  0  0  0  0  0  0  0  0
   46.4620   24.3210  -13.7930 C   0  0  0  0  0  0  0  0  0  0  0  0
   47.8100   24.6500  -13.6330 C   0  0  0  0  0  0  0  0  0  0  0  0
   48.2580   25.9310  -13.9470 C   0  0  0  0  0  0  0  0  0  0  0  0
   47.3600   26.8830  -14.4260 C   0  0  0  0  0  0  0  0  0  0  0  0
   46.0130   26.5560  -14.5880 C   0  0  0  0  0  0  0  0  0  0  0  0
   44.2208   25.8467  -10.5036 H   0  0  0  0  0  0  0  0  0  0  0  0
   44.7192   24.7207  -11.8113 H   0  0  0  0  0  0  0  0  0  0  0  0
   45.3128   26.4161  -11.8113 H   0  0  0  0  0  0  0  0  0  0  0  0
   42.4448   27.3465  -10.7566 H   0  0  0  0  0  0  0  0  0  0  0  0
   40.4640   28.1249  -12.0356 H   0  0  0  0  0  0  0  0  0  0  0  0
   39.2445   25.8587  -18.1388 H   0  0  0  0  0  0  0  0  0  0  0  0
   37.3436   26.3895  -19.6663 H   0  0  0  0  0  0  0  0  0  0  0  0
   35.6405   28.0884  -18.9975 H   0  0  0  0  0  0  0  0  0  0  0  0
   35.8290   30.1640  -16.2640 H   0  0  0  0  0  0  0  0  0  0  0  0
   38.9490   28.6210  -12.1020 H   0  0  0  0  0  0  0  0  0  0  0  0
   41.8232   25.9200  -15.4835 H   0  0  0  0  0  0  0  0  0  0  0  0
   43.9552   23.8676  -14.0960 H   0  0  0  0  0  0  0  0  0  0  0  0
   43.8845   25.0168  -15.5297 H   0  0  0  0  0  0  0  0  0  0  0  0
   46.1161   23.3057  -13.5492 H   0  0  0  0  0  0  0  0  0  0  0  0
   48.5187   23.8966  -13.2586 H   0  0  0  0  0  0  0  0  0  0  0  0
   49.3190   26.1908  -13.8171 H   0  0  0  0  0  0  0  0  0  0  0  0
   47.7136   27.8940  -14.6768 H   0  0  0  0  0  0  0  0  0  0  0  0
   45.3118   27.3101  -14.9748 H   0  0  0  0  0  0  0  0  0  0  0  0
  1  2  1  0
  2  3  2  0
  3  4  1  0
  4  5  2  0
  5  6  1  0
  6  7  1  0
  7  8  1  0
  8  9  2  0
  9 10  1  0
 10 11  2  0
 11 12  1  0
 12 13  1  0
 12 14  2  0
 14 15  1  0
 15 16  2  0
 15 17  1  0
 17 18  1  0
  5 19  1  0
 19 20  2  0
 20 21  1  0
 21 22  1  0
 22 23  2  0
 23 24  1  0
 24 25  2  0
 25 26  1  0
 26 27  2  0
 20  2  1  0
 27 22  1  0
 17  6  2  0
 14  8  1  0
  1 28  1  0
  1 29  1  0
  1 30  1  0
  3 31  1  0
  4 32  1  0
  9 33  1  0
 10 34  1  0
 11 35  1  0
 13 36  1  0
 18 37  1  0
 19 38  1  0
 21 39  1  0
 21 40  1  0
 23 41  1  0
 24 42  1  0
 25 43  1  0
 26 44  1  0
 27 45  1  0
M  END
>  <meeko>  (3) 
{"is_sidechain": [false], "free_energy": -6.29, "intermolecular_energy": -7.702, "internal_energy": 0.49}

$$$$
cand_001_out
     RDKit          3D

 45 48  0  0  0  0  0  0  0  0999 V2000
   44.2730   26.0590  -11.5610 C   0  0  0  0  0  0  0  0  0  0  0  0
   43.1880   26.2730  -12.5810 C   0  0  0  0  0  0  0  0  0  0  0  0
   42.1620   27.1850  -12.2900 C   0  0  0  0  0  0  0  0  0  0  0  0
   41.1460   27.4440  -13.2140 C   0  0  0  0  0  0  0  0  0  0  0  0
   41.1340   26.8080  -14.4590 C   0  0  0  0  0  0  0  0  0  0  0  0
   40.0430   27.0850  -15.4180 C   0  0  0  0  0  0  0  0  0  0  0  0
   39.0800   27.9460  -14.9050 O   0  0  0  0  0  0  0  0  0  0  0  0
   38.0090   28.2880  -15.6920 C   0  0  0  0  0  0  0  0  0  0  0  0
   37.0580   29.1420  -15.1330 C   0  0  0  0  0  0  0  0  0  0  0  0
   35.9460   29.5310  -15.8810 C   0  0  0  0  0  0  0  0  0  0  0  0
   35.7840   29.0660  -17.1870 C   0  0  0  0  0  0  0  0  0  0  0  0
   36.7340   28.2130  -17.7440 C   0  0  0  0  0  0  0  0  0  0  0  0
   36.5130   27.7960  -19.0280 O   0  0  0  0  0  0  0  0  0  0  0  0
   37.8470   27.8240  -16.9940 C   0  0  0  0  0  0  0  0  0  0  0  0
   38.8690   26.9300  -17.5410 C   0  0  0  0  0  0  0  0  0  0  0  0
   38.8010   26.4850  -18.6840 O   0  0  0  0  0  0  0  0  0  0  0  0
   40.0060   26.5720  -16.6610 C   0  0  0  0  0  0  0  0  0  0  0  0
   40.9730   25.7370  -17.1920 O   0  0  0  0  0  0  0  0  0  0  0  0
   42.1550   25.8930  -14.7480 C   0  0  0  0  0  0  0  0  0  0  0  0
   43.1920   25.6210  -13.8310 C   0  0  0  0  0  0  0  0  0  0  0  0
   44.2780   24.6420  -14.2410 C   0  0  0  0  0  0  0  0  0  0  0  0
   45.6870   25.1900  -14.1870 C   0  0  0  0  0  0  0  0  0  0  0  0
   46.7490   24.3650  -13.7870 C   0  0  0  0  0  0  0  0  0  0  0  0
   48.0570   24.8530  -13.7560 C   0  0  0  0  0  0  0  0  0  0  0  0
   48.3210   26.1680  -14.1320 C   0  0  0  0  0  0  0  0  0  0  0  0
   47.2770   26.9950  -14.5430 C   0  0  0  0  0  0  0  0  0  0  0  0
   45.9700   26.5090  -14.5760 C   0  0  0  0  0  0  0  0  0  0  0  0
   43.8476   26.1429  -10.5501 H   0  0  0  0  0  0  0  0  0  0  0  0
   44.7086   25.0576  -11.6936 H   0  0  0  0  0  0  0  0  0  0  0  0
   45.0562   26.8200  -11.6936 H   0  0  0  0  0  0  0  0  0  0  0  0
   42.1573   27.7038  -11.3201 H   0  0  0  0  0  0  0  0  0  0  0  0
   40.3472   28.1559  -12.9590 H   0  0  0  0  0  0  0  0  0  0  0  0
   37.1846   29.5084  -14.1036 H   0  0  0  0  0  0  0  0  0  0  0  0
   35.1963   30.2049  -15.4408 H   0  0  0  0  0  0  0  0  0  0  0  0
   34.9070   29.3728  -17.7758 H   0  0  0  0  0  0  0  0  0  0  0  0
   35.6370   27.6760  -19.3370 H   0  0  0  0  0  0  0  0  0  0  0  0
   40.7830   24.8310  -17.3330 H   0  0  0  0  0  0  0  0  0  0  0  0
   42.1478   25.3722  -15.7169 H   0  0  0  0  0  0  0  0  0  0  0  0
   44.2243   23.7722  -13.5698 H   0  0  0  0  0  0  0  0  0  0  0  0
   44.0853   24.3932  -15.2950 H   0  0  0  0  0  0  0  0  0  0  0  0
   46.5493   23.3235  -13.4949 H   0  0  0  0  0  0  0  0  0  0  0  0
   48.8801   24.1980  -13.4342 H   0  0  0  0  0  0  0  0  0  0  0  0
   49.3511   26.5529  -14.1046 H   0  0  0  0  0  0  0  0  0  0  0  0
   47.4843   28.0331  -14.8420 H   0  0  0  0  0  0  0  0  0  0  0  0
   45.1531   27.1655  -14.9100 H   0  0  0  0  0  0  0  0  0  0  0  0
  1  2  1  0
  2  3  2  0
  3  4  1  0
  4  5  2  0
  5  6  1  0
  6  7  1  0
  7  8  1  0
  8  9  2  0
  9 10  1  0
 10 11  2  0
 11 12  1  0
 12 13  1  0
 12 14  2  0
 14 15  1  0
 15 16  2  0
 15 17  1  0
 17 18  1  0
  5 19  1  0
 19 20  2  0
 20 21  1  0
 21 22  1  0
 22 23  2  0
 23 24  1  0
 24 25  2  0
 25 26  1  0
 26 27  2  0
 20  2  1  0
 27 22  1  0
 17  6  2  0
 14  8  1  0
  1 28  1  0
  1 29  1  0
  1 30  1  0
  3 31  1  0
  4 32  1  0
  9 33  1  0
 10 34  1  0
 11 35  1  0
 13 36  1  0
 18 37  1  0
 19 38  1  0
 21 39  1  0
 21 40  1  0
 23 41  1  0
 24 42  1  0
 25 43  1  0
 26 44  1  0
 27 45  1  0
M  END
>  <meeko>  (4) 
{"is_sidechain": [false], "free_energy": -6.247, "intermolecular_energy": -7.248, "internal_energy": 0.09}

$$$$
cand_001_out
     RDKit          3D

 45 48  0  0  0  0  0  0  0  0999 V2000
   42.4940   26.7990  -11.6810 C   0  0  0  0  0  0  0  0  0  0  0  0
   41.5330   26.8660  -12.8350 C   0  0  0  0  0  0  0  0  0  0  0  0
   40.5200   27.8380  -12.8120 C   0  0  0  0  0  0  0  0  0  0  0  0
   39.6190   27.9640  -13.8720 C   0  0  0  0  0  0  0  0  0  0  0  0
   39.7130   27.1310  -14.9920 C   0  0  0  0  0  0  0  0  0  0  0  0
   38.7410   27.2700  -16.0980 C   0  0  0  0  0  0  0  0  0  0  0  0
   37.8860   28.3540  -15.9310 O   0  0  0  0  0  0  0  0  0  0  0  0
   36.9330   28.5990  -16.8880 C   0  0  0  0  0  0  0  0  0  0  0  0
   36.0860   29.6870  -16.6740 C   0  0  0  0  0  0  0  0  0  0  0  0
   35.0970   29.9930  -17.6100 C   0  0  0  0  0  0  0  0  0  0  0  0
   34.9530   29.2130  -18.7580 C   0  0  0  0  0  0  0  0  0  0  0  0
   35.7990   28.1270  -18.9700 C   0  0  0  0  0  0  0  0  0  0  0  0
   35.6040   27.4060  -20.1150 O   0  0  0  0  0  0  0  0  0  0  0  0
   36.7900   27.8210  -18.0320 C   0  0  0  0  0  0  0  0  0  0  0  0
   37.7000   26.6890  -18.2160 C   0  0  0  0  0  0  0  0  0  0  0  0
   37.6420   25.9600  -19.2040 O   0  0  0  0  0  0  0  0  0  0  0  0
   38.7100   26.4450  -17.1600 C   0  0  0  0  0  0  0  0  0  0  0  0
   39.5740   25.3810  -17.3500 O   0  0  0  0  0  0  0  0  0  0  0  0
   40.7200   26.1570  -15.0140 C   0  0  0  0  0  0  0  0  0  0  0  0
   41.6420   26.0170  -13.9550 C   0  0  0  0  0  0  0  0  0  0  0  0
   42.7240   24.9590  -14.0780 C   0  0  0  0  0  0  0  0  0  0  0  0
   44.1420   25.4820  -14.0060 C   0  0  0  0  0  0  0  0  0  0  0  0
   44.3830   26.8650  -14.0030 C   0  0  0  0  0  0  0  0  0  0  0  0
   45.6870   27.3590  -13.9120 C   0  0  0  0  0  0  0  0  0  0  0  0
   46.7620   26.4790  -13.8160 C   0  0  0  0  0  0  0  0  0  0  0  0
   46.5350   25.1040  -13.8060 C   0  0  0  0  0  0  0  0  0  0  0  0
   45.2340   24.6080  -13.8950 C   0  0  0  0  0  0  0  0  0  0  0  0
   41.9342   26.8380  -10.7349 H   0  0  0  0  0  0  0  0  0  0  0  0
   43.0631   25.8590  -11.7318 H   0  0  0  0  0  0  0  0  0  0  0  0
   43.1880   27.6509  -11.7318 H   0  0  0  0  0  0  0  0  0  0  0  0
   40.4346   28.5107  -11.9459 H   0  0  0  0  0  0  0  0  0  0  0  0
   38.8272   28.7262  -13.8256 H   0  0  0  0  0  0  0  0  0  0  0  0
   36.1976   30.3025  -15.7692 H   0  0  0  0  0  0  0  0  0  0  0  0
   34.4295   30.8511  -17.4423 H   0  0  0  0  0  0  0  0  0  0  0  0
   34.1726   29.4554  -19.4944 H   0  0  0  0  0  0  0  0  0  0  0  0
   35.5010   27.8470  -20.9350 H   0  0  0  0  0  0  0  0  0  0  0  0
   39.2320   24.5230  -17.5040 H   0  0  0  0  0  0  0  0  0  0  0  0
   40.7938   25.4832  -15.8803 H   0  0  0  0  0  0  0  0  0  0  0  0
   42.5861   24.2337  -13.2625 H   0  0  0  0  0  0  0  0  0  0  0  0
   42.6098   24.5180  -15.0792 H   0  0  0  0  0  0  0  0  0  0  0  0
   43.5381   27.5659  -14.0729 H   0  0  0  0  0  0  0  0  0  0  0  0
   45.8646   28.4446  -13.9162 H   0  0  0  0  0  0  0  0  0  0  0  0
   47.7885   26.8685  -13.7482 H   0  0  0  0  0  0  0  0  0  0  0  0
   47.3834   24.4083  -13.7278 H   0  0  0  0  0  0  0  0  0  0  0  0
   45.0628   23.5215  -13.8780 H   0  0  0  0  0  0  0  0  0  0  0  0
  1  2  1  0
  2  3  2  0
  3  4  1  0
  4  5  2  0
  5  6  1  0
  6  7  1  0
  7  8  1  0
  8  9  2  0
  9 10  1  0
 10 11  2  0
 11 12  1  0
 12 13  1  0
 12 14  2  0
 14 15  1  0
 15 16  2  0
 15 17  1  0
 17 18  1  0
  5 19  1  0
 19 20  2  0
 20 21  1  0
 21 22  1  0
 22 23  2  0
 23 24  1  0
 24 25  2  0
 25 26  1  0
 26 27  2  0
 20  2  1  0
 27 22  1  0
 17  6  2  0
 14  8  1  0
  1 28  1  0
  1 29  1  0
  1 30  1  0
  3 31  1  0
  4 32  1  0
  9 33  1  0
 10 34  1  0
 11 35  1  0
 13 36  1  0
 18 37  1  0
 19 38  1  0
 21 39  1  0
 21 40  1  0
 23 41  1  0
 24 42  1  0
 25 43  1  0
 26 44  1  0
 27 45  1  0
M  END
>  <meeko>  (5) 
{"is_sidechain": [false], "free_energy": -5.971, "intermolecular_energy": -7.667, "internal_energy": 0.848}

$$$$
