cand_014_out
     RDKit          3D

 35 37  0  0  0  0  0  0  0  0999 V2000
   46.9790   24.2040  -13.5290 C   0  0  0  0  0  0  0  0  0  0  0  0
   45.6380   24.8520  -13.7390 C   0  0  0  0  0  0  0  0  0  0  0  0
   44.5110   24.0390  -13.9270 C   0  0  0  0  0  0  0  0  0  0  0  0
   43.2490   24.5990  -14.1370 C   0  0  0  0  0  0  0  0  0  0  0  0
   43.0780   25.9870  -14.1620 C   0  0  0  0  0  0  0  0  0  0  0  0
   41.7370   26.5600  -14.4030 C   0  0  0  0  0  0  0  0  0  0  0  0
   41.2650   26.3110  -15.6860 O   0  0  0  0  0  0  0  0  0  0  0  0
   40.0300   26.7930  -16.0410 C   0  0  0  0  0  0  0  0  0  0  0  0
   39.6000   26.5360  -17.3430 C   0  0  0  0  0  0  0  0  0  0  0  0
   38.3520   26.9950  -17.7680 C   0  0  0  0  0  0  0  0  0  0  0  0
   37.5330   27.7110  -16.8910 C   0  0  0  0  0  0  0  0  0  0  0  0
   37.9640   27.9650  -15.5920 C   0  0  0  0  0  0  0  0  0  0  0  0
   37.1130   28.6700  -14.7860 O   0  0  0  0  0  0  0  0  0  0  0  0
   39.2130   27.5060  -15.1670 C   0  0  0  0  0  0  0  0  0  0  0  0
   39.7040   27.7520  -13.8110 C   0  0  0  0  0  0  0  0  0  0  0  0
   39.0400   28.3660  -12.9780 O   0  0  0  0  0  0  0  0  0  0  0  0
   41.0470   27.2300  -13.4620 C   0  0  0  0  0  0  0  0  0  0  0  0
   41.4960   27.4560  -12.1750 O   0  0  0  0  0  0  0  0  0  0  0  0
   44.2080   26.8010  -13.9970 C   0  0  0  0  0  0  0  0  0  0  0  0
   45.4900   26.2540  -13.7920 C   0  0  0  0  0  0  0  0  0  0  0  0
   46.6620   27.1890  -13.5940 C   0  0  0  0  0  0  0  0  0  0  0  0
   47.6640   27.0020  -14.5000 F   0  0  0  0  0  0  0  0  0  0  0  0
   47.2520   27.0590  -12.3730 F   0  0  0  0  0  0  0  0  0  0  0  0
   47.1755   24.1090  -12.4509 H   0  0  0  0  0  0  0  0  0  0  0  0
   46.9803   23.2059  -13.9913 H   0  0  0  0  0  0  0  0  0  0  0  0
   47.7619   24.8232  -13.9913 H   0  0  0  0  0  0  0  0  0  0  0  0
   44.6225   22.9448  -13.9088 H   0  0  0  0  0  0  0  0  0  0  0  0
   42.3798   23.9412  -14.2844 H   0  0  0  0  0  0  0  0  0  0  0  0
   40.2438   25.9722  -18.0341 H   0  0  0  0  0  0  0  0  0  0  0  0
   38.0129   26.7928  -18.7947 H   0  0  0  0  0  0  0  0  0  0  0  0
   36.5499   28.0731  -17.2264 H   0  0  0  0  0  0  0  0  0  0  0  0
   36.6140   29.3800  -15.1390 H   0  0  0  0  0  0  0  0  0  0  0  0
   42.1910   26.9350  -11.8230 H   0  0  0  0  0  0  0  0  0  0  0  0
   44.0904   27.8942  -14.0284 H   0  0  0  0  0  0  0  0  0  0  0  0
   46.2035   28.1819  -13.7119 H   0  0  0  0  0  0  0  0  0  0  0  0
  1  2  1  0
  2  3  2  0
  3  4  1  0
  4  5  2  0
  5  6  1  0
  6  7  1  0
  7  8  1  0
  8  9  2  0
  9 10  1  0
 10 11  2  0
 11 12  1  0
 12 13  1  0
 12 14  2  0
 14 15  1  0
 15 16  2  0
 15 17  1  0
 17 18  1  0
  5 19  1  0
 19 20  2  0
 20 21  1  0
 21 22  1  0
 21 23  1  0
 20  2  1  0
 17  6  2  0
 14  8  1  0
  1 24  1  0
  1 25  1  0
  1 26  1  0
  3 27  1  0
  4 28  1  0
  9 29  1  0
 10 30  1  0
 11 31  1  0
 13 32  1  0
 18 33  1  0
 19 34  1  0
 21 35  1  0
M  END
>  <meeko>  (1) 
{"is_sidechain": [false], "free_energy": -7.39, "intermolecular_energy": -8.686, "internal_energy": -0.296}

$$$$
cand_014_out
     RDKit          3D

 35 37  0  0  0  0  0  0  0  0999 V2000
   45.4500   24.5050  -13.1420 C   0  0  0  0  0  0  0  0  0  0  0  0
   44.2050   25.0890  -13.7510 C   0  0  0  0  0  0  0  0  0  0  0  0
   43.4280   24.2920  -14.6060 C   0  0  0  0  0  0  0  0  0  0  0  0
   42.2700   24.7980  -15.2020 C   0  0  0  0  0  0  0  0  0  0  0  0
   41.8560   26.1120  -14.9590 C   0  0  0  0  0  0  0  0  0  0  0  0
   40.6380   26.6330  -15.6130 C   0  0  0  0  0  0  0  0  0  0  0  0
   39.8810   27.4470  -14.7800 O   0  0  0  0  0  0  0  0  0  0  0  0
   38.7210   27.9940  -15.2650 C   0  0  0  0  0  0  0  0  0  0  0  0
   37.9810   28.7900  -14.3900 C   0  0  0  0  0  0  0  0  0  0  0  0
   36.7910   29.3800  -14.8220 C   0  0  0  0  0  0  0  0  0  0  0  0
   36.3410   29.1740  -16.1270 C   0  0  0  0  0  0  0  0  0  0  0  0
   37.0810   28.3790  -16.9980 C   0  0  0  0  0  0  0  0  0  0  0  0
   36.5830   28.2210  -18.2630 O   0  0  0  0  0  0  0  0  0  0  0  0
   38.2710   27.7890  -16.5670 C   0  0  0  0  0  0  0  0  0  0  0  0
   39.0780   26.9470  -17.4500 C   0  0  0  0  0  0  0  0  0  0  0  0
   38.7540   26.7250  -18.6150 O   0  0  0  0  0  0  0  0  0  0  0  0
   40.3190   26.3600  -16.8920 C   0  0  0  0  0  0  0  0  0  0  0  0
   41.0820   25.5770  -17.7380 O   0  0  0  0  0  0  0  0  0  0  0  0
   42.6450   26.9150  -14.1230 C   0  0  0  0  0  0  0  0  0  0  0  0
   43.8190   26.4250  -13.5190 C   0  0  0  0  0  0  0  0  0  0  0  0
   44.6090   27.3370  -12.6070 C   0  0  0  0  0  0  0  0  0  0  0  0
   44.3020   28.6570  -12.7600 F   0  0  0  0  0  0  0  0  0  0  0  0
   45.9550   27.2560  -12.8010 F   0  0  0  0  0  0  0  0  0  0  0  0
   45.3733   24.5410  -12.0453 H   0  0  0  0  0  0  0  0  0  0  0  0
   45.5622   23.4603  -13.4677 H   0  0  0  0  0  0  0  0  0  0  0  0
   46.3250   25.0866  -13.4677 H   0  0  0  0  0  0  0  0  0  0  0  0
   43.7347   23.2554  -14.8095 H   0  0  0  0  0  0  0  0  0  0  0  0
   41.6771   24.1558  -15.8699 H   0  0  0  0  0  0  0  0  0  0  0  0
   38.3344   28.9527  -13.3611 H   0  0  0  0  0  0  0  0  0  0  0  0
   36.2076   30.0080  -14.1326 H   0  0  0  0  0  0  0  0  0  0  0  0
   35.4036   29.6388  -16.4666 H   0  0  0  0  0  0  0  0  0  0  0  0
   36.9970   28.6500  -18.9860 H   0  0  0  0  0  0  0  0  0  0  0  0
   42.0120   25.6900  -17.7710 H   0  0  0  0  0  0  0  0  0  0  0  0
   42.3390   27.9546  -13.9341 H   0  0  0  0  0  0  0  0  0  0  0  0
   44.3279   26.9802  -11.6052 H   0  0  0  0  0  0  0  0  0  0  0  0
  1  2  1  0
  2  3  2  0
  3  4  1  0
  4  5  2  0
  5  6  1  0
  6  7  1  0
  7  8  1  0
  8  9  2  0
  9 10  1  0
 10 11  2  0
 11 12  1  0
 12 13  1  0
 12 14  2  0
 14 15  1  0
 15 16  2  0
 15 17  1  0
 17 18  1  0
  5 19  1  0
 19 20  2  0
 20 21  1  0
 21 22  1  0
 21 23  1  0
 20  2  1  0
 17  6  2  0
 14  8  1  0
  1 24  1  0
  1 25  1  0
  1 26  1  0
  3 27  1  0
  4 28  1  0
  9 29  1  0
 10 30  1  0
 11 31  1  0
 13 32  1  0
 18 33  1  0
 19 34  1  0
 21 35  1  0
M  END
>  <meeko>  (2) 
{"is_sidechain": [false], "free_energy": -7.31, "intermolecular_energy": -9.061, "internal_energy": 0.172}

$$$$
cand_014_out
     RDKit          3D

 35 37  0  0  0  0  0  0  0  0999 V2000
   35.5930   29.4260  -17.5770 C   0  0  0  0  0  0  0  0  0  0  0  0
   36.7420   28.8870  -16.7690 C   0  0  0  0  0  0  0  0  0  0  0  0
   37.0160   29.4520  -15.5150 C   0  0  0  0  0  0  0  0  0  0  0  0
   38.0800   28.9890  -14.7370 C   0  0  0  0  0  0  0  0  0  0  0  0
   38.8970   27.9470  -15.1900 C   0  0  0  0  0  0  0  0  0  0  0  0
   40.0280   27.4840  -14.3590 C   0  0  0  0  0  0  0  0  0  0  0  0
   41.0220   26.8570  -15.1000 O   0  0  0  0  0  0  0  0  0  0  0  0
   42.1290   26.3760  -14.4470 C   0  0  0  0  0  0  0  0  0  0  0  0
   43.0960   25.7380  -15.2250 C   0  0  0  0  0  0  0  0  0  0  0  0
   44.2480   25.2280  -14.6230 C   0  0  0  0  0  0  0  0  0  0  0  0
   44.4350   25.3560  -13.2450 C   0  0  0  0  0  0  0  0  0  0  0  0
   43.4690   25.9940  -12.4720 C   0  0  0  0  0  0  0  0  0  0  0  0
   43.7150   26.0860  -11.1290 O   0  0  0  0  0  0  0  0  0  0  0  0
   42.3160   26.5040  -13.0730 C   0  0  0  0  0  0  0  0  0  0  0  0
   41.2760   27.1800  -12.2970 C   0  0  0  0  0  0  0  0  0  0  0  0
   41.3700   27.3410  -11.0810 O   0  0  0  0  0  0  0  0  0  0  0  0
   40.0870   27.6770  -13.0280 C   0  0  0  0  0  0  0  0  0  0  0  0
   39.1170   28.3270  -12.2890 O   0  0  0  0  0  0  0  0  0  0  0  0
   38.6370   27.3980  -16.4530 C   0  0  0  0  0  0  0  0  0  0  0  0
   37.5730   27.8560  -17.2550 C   0  0  0  0  0  0  0  0  0  0  0  0
   37.3320   27.2010  -18.5960 C   0  0  0  0  0  0  0  0  0  0  0  0
   36.0570   27.3560  -19.0550 F   0  0  0  0  0  0  0  0  0  0  0  0
   37.5480   25.8560  -18.5840 F   0  0  0  0  0  0  0  0  0  0  0  0
   34.8087   29.7939  -16.8991 H   0  0  0  0  0  0  0  0  0  0  0  0
   35.9465   30.2522  -18.2113 H   0  0  0  0  0  0  0  0  0  0  0  0
   35.1837   28.6260  -18.2113 H   0  0  0  0  0  0  0  0  0  0  0  0
   36.3847   30.2706  -15.1390 H   0  0  0  0  0  0  0  0  0  0  0  0
   38.2778   29.4486  -13.7574 H   0  0  0  0  0  0  0  0  0  0  0  0
   42.9509   25.6370  -16.3107 H   0  0  0  0  0  0  0  0  0  0  0  0
   45.0101   24.7242  -15.2357 H   0  0  0  0  0  0  0  0  0  0  0  0
   45.3430   24.9539  -12.7718 H   0  0  0  0  0  0  0  0  0  0  0  0
   43.0100   26.0030  -10.5170 H   0  0  0  0  0  0  0  0  0  0  0  0
   38.4600   27.8320  -11.8400 H   0  0  0  0  0  0  0  0  0  0  0  0
   39.2804   26.5884  -16.8279 H   0  0  0  0  0  0  0  0  0  0  0  0
   38.0523   27.7153  -19.2492 H   0  0  0  0  0  0  0  0  0  0  0  0
  1  2  1  0
  2  3  2  0
  3  4  1  0
  4  5  2  0
  5  6  1  0
  6  7  1  0
  7  8  1  0
  8  9  2  0
  9 10  1  0
 10 11  2  0
 11 12  1  0
 12 13  1  0
 12 14  2  0
 14 15  1  0
 15 16  2  0
 15 17  1  0
 17 18  1  0
  5 19  1  0
 19 20  2  0
 20 21  1  0
 21 22  1  0
 21 23  1  0
 20  2  1  0
 17  6  2  0
 14  8  1  0
  1 24  1  0
  1 25  1  0
  1 26  1  0
  3 27  1  0
  4 28  1  0
  9 29  1  0
 10 30  1  0
 11 31  1  0
 13 32  1  0
 18 33  1  0
 19 34  1  0
 21 35  1  0
M  END
>  <meeko>  (3) 
{"is_sidechain": [false], "free_energy": -7.051, "intermolecular_energy": -9.241, "internal_energy": 0.657}

$$$$
cand_014_out
     RDKit          3D

 35 37  0  0  0  0  0  0  0  0999 V2000
   45.2590   24.8700  -13.1380 C   0  0  0  0  0  0  0  0  0  0  0  0
   43.9880   25.3650  -13.7730 C   0  0  0  0  0  0  0  0  0  0  0  0
   43.6920   24.9840  -15.0900 C   0  0  0  0  0  0  0  0  0  0  0  0
   42.5280   25.4300  -15.7210 C   0  0  0  0  0  0  0  0  0  0  0  0
   41.6280   26.2660  -15.0530 C   0  0  0  0  0  0  0  0  0  0  0  0
   40.4120   26.7410  -15.7450 C   0  0  0  0  0  0  0  0  0  0  0  0
   39.6280   27.5720  -14.9540 O   0  0  0  0  0  0  0  0  0  0  0  0
   38.4660   28.0800  -15.4770 C   0  0  0  0  0  0  0  0  0  0  0  0
   37.6990   28.8950  -14.6430 C   0  0  0  0  0  0  0  0  0  0  0  0
   36.5070   29.4480  -15.1150 C   0  0  0  0  0  0  0  0  0  0  0  0
   36.0800   29.1850  -16.4180 C   0  0  0  0  0  0  0  0  0  0  0  0
   36.8470   28.3710  -17.2470 C   0  0  0  0  0  0  0  0  0  0  0  0
   36.3720   28.1570  -18.5120 O   0  0  0  0  0  0  0  0  0  0  0  0
   38.0400   27.8190  -16.7760 C   0  0  0  0  0  0  0  0  0  0  0  0
   38.8750   26.9580  -17.6150 C   0  0  0  0  0  0  0  0  0  0  0  0
   38.5730   26.6870  -18.7760 O   0  0  0  0  0  0  0  0  0  0  0  0
   40.1170   26.4150  -17.0170 C   0  0  0  0  0  0  0  0  0  0  0  0
   40.9070   25.6140  -17.8210 O   0  0  0  0  0  0  0  0  0  0  0  0
   41.9350   26.6650  -13.7450 C   0  0  0  0  0  0  0  0  0  0  0  0
   43.1070   26.2330  -13.0940 C   0  0  0  0  0  0  0  0  0  0  0  0
   43.3640   26.6790  -11.6730 C   0  0  0  0  0  0  0  0  0  0  0  0
   43.9970   25.7400  -10.9140 F   0  0  0  0  0  0  0  0  0  0  0  0
   42.2240   26.9830  -10.9910 F   0  0  0  0  0  0  0  0  0  0  0  0
   45.1609   24.9082  -12.0431 H   0  0  0  0  0  0  0  0  0  0  0  0
   45.4467   23.8330  -13.4533 H   0  0  0  0  0  0  0  0  0  0  0  0
   46.0986   25.5069  -13.4533 H   0  0  0  0  0  0  0  0  0  0  0  0
   44.3855   24.3253  -15.6333 H   0  0  0  0  0  0  0  0  0  0  0  0
   42.3172   25.1199  -16.7551 H   0  0  0  0  0  0  0  0  0  0  0  0
   38.0331   29.1013  -13.6155 H   0  0  0  0  0  0  0  0  0  0  0  0
   35.9031   30.0922  -14.4590 H   0  0  0  0  0  0  0  0  0  0  0  0
   35.1400   29.6198  -16.7886 H   0  0  0  0  0  0  0  0  0  0  0  0
   36.6320   28.7230  -19.2130 H   0  0  0  0  0  0  0  0  0  0  0  0
   41.4720   24.9740  -17.4360 H   0  0  0  0  0  0  0  0  0  0  0  0
   41.2422   27.3333  -13.2126 H   0  0  0  0  0  0  0  0  0  0  0  0
   43.9975   27.5678  -11.8097 H   0  0  0  0  0  0  0  0  0  0  0  0
  1  2  1  0
  2  3  2  0
  3  4  1  0
  4  5  2  0
  5  6  1  0
  6  7  1  0
  7  8  1  0
  8  9  2  0
  9 10  1  0
 10 11  2  0
 11 12  1  0
 12 13  1  0
 12 14  2  0
 14 15  1  0
 15 16  2  0
 15 17  1  0
 17 18  1  0
  5 19  1  0
 19 20  2  0
 20 21  1  0
 21 22  1  0
 21 23  1  0
 20  2  1  0
 17  6  2  0
 14  8  1  0
  1 24  1  0
  1 25  1  0
  1 26  1  0
  3 27  1  0
  4 28  1  0
  9 29  1  0
 10 30  1  0
 11 31  1  0
 13 32  1  0
 18 33  1  0
 19 34  1  0
 21 35  1  0
M  END
>  <meeko>  (4) 
{"is_sidechain": [false], "free_energy": -6.926, "intermolecular_energy": -9.057, "internal_energy": 0.619}

$$$$
cand_014_out
     RDKit          3D

 35 37  0  0  0  0  0  0  0  0999 V2000
   36.5130   27.4030  -18.8610 C   0  0  0  0  0  0  0  0  0  0  0  0
   37.5660   27.2830  -17.7930 C   0  0  0  0  0  0  0  0  0  0  0  0
   38.5750   26.3190  -17.9380 C   0  0  0  0  0  0  0  0  0  0  0  0
   39.5650   26.1660  -16.9640 C   0  0  0  0  0  0  0  0  0  0  0  0
   39.5760   26.9720  -15.8210 C   0  0  0  0  0  0  0  0  0  0  0  0
   40.6220   26.7810  -14.7950 C   0  0  0  0  0  0  0  0  0  0  0  0
   41.7810   26.2080  -15.3030 O   0  0  0  0  0  0  0  0  0  0  0  0
   42.8310   25.9730  -14.4520 C   0  0  0  0  0  0  0  0  0  0  0  0
   43.9690   25.3800  -14.9980 C   0  0  0  0  0  0  0  0  0  0  0  0
   45.0750   25.1170  -14.1870 C   0  0  0  0  0  0  0  0  0  0  0  0
   45.0430   25.4470  -12.8310 C   0  0  0  0  0  0  0  0  0  0  0  0
   43.9060   26.0390  -12.2880 C   0  0  0  0  0  0  0  0  0  0  0  0
   43.9430   26.3380  -10.9540 O   0  0  0  0  0  0  0  0  0  0  0  0
   42.8000   26.3020  -13.0990 C   0  0  0  0  0  0  0  0  0  0  0  0
   41.5860   26.9230  -12.5690 C   0  0  0  0  0  0  0  0  0  0  0  0
   41.4830   27.2510  -11.3890 O   0  0  0  0  0  0  0  0  0  0  0  0
   40.4650   27.1510  -13.5110 C   0  0  0  0  0  0  0  0  0  0  0  0
   39.3270   27.7500  -13.0040 O   0  0  0  0  0  0  0  0  0  0  0  0
   38.5550   27.9200  -15.6660 C   0  0  0  0  0  0  0  0  0  0  0  0
   37.5430   28.0840  -16.6320 C   0  0  0  0  0  0  0  0  0  0  0  0
   36.4870   29.1430  -16.4140 C   0  0  0  0  0  0  0  0  0  0  0  0
   36.7430   30.3090  -17.0740 F   0  0  0  0  0  0  0  0  0  0  0  0
   36.3400   29.4950  -15.1060 F   0  0  0  0  0  0  0  0  0  0  0  0
   35.5250   27.5156  -18.3908 H   0  0  0  0  0  0  0  0  0  0  0  0
   36.7238   28.2829  -19.4865 H   0  0  0  0  0  0  0  0  0  0  0  0
   36.5204   26.4982  -19.4865 H   0  0  0  0  0  0  0  0  0  0  0  0
   38.5868   25.6754  -18.8300 H   0  0  0  0  0  0  0  0  0  0  0  0
   40.3453   25.4023  -17.0978 H   0  0  0  0  0  0  0  0  0  0  0  0
   43.9954   25.1197  -16.0664 H   0  0  0  0  0  0  0  0  0  0  0  0
   45.9727   24.6491  -14.6173 H   0  0  0  0  0  0  0  0  0  0  0  0
   45.9146   25.2397  -12.1927 H   0  0  0  0  0  0  0  0  0  0  0  0
   43.1980   26.7300  -10.5410 H   0  0  0  0  0  0  0  0  0  0  0  0
   39.3590   28.6360  -12.6990 H   0  0  0  0  0  0  0  0  0  0  0  0
   38.5438   28.5526  -14.7662 H   0  0  0  0  0  0  0  0  0  0  0  0
   35.5774   28.6611  -16.8018 H   0  0  0  0  0  0  0  0  0  0  0  0
  1  2  1  0
  2  3  2  0
  3  4  1  0
  4  5  2  0
  5  6  1  0
  6  7  1  0
  7  8  1  0
  8  9  2  0
  9 10  1  0
 10 11  2  0
 11 12  1  0
 12 13  1  0
 12 14  2  0
 14 15  1  0
 15 16  2  0
 15 17  1  0
 17 18  1  0
  5 19  1  0
 19 20  2  0
 20 21  1  0
 21 22  1  0
 21 23  1  0
 20  2  1  0
 17  6  2  0
 14  8  1  0
  1 24  1  0
  1 25  1  0
  1 26  1  0
  3 27  1  0
  4 28  1  0
  9 29  1  0
 10 30  1  0
 11 31  1  0
 13 32  1  0
 18 33  1  0
 19 34  1  0
 21 35  1  0
M  END
>  <meeko>  (5) 
{"is_sidechain": [false], "free_energy": -6.872, "intermolecular_energy": -8.398, "internal_energy": 0.025}

$$$$
cand_014_out
     RDKit          3D

 35 37  0  0  0  0  0  0  0  0999 V2000
   44.7630   25.8610  -11.5190 C   0  0  0  0  0  0  0  0  0  0  0  0
   43.6660   26.1540  -12.5060 C   0  0  0  0  0  0  0  0  0  0  0  0
   42.5210   26.8350  -12.0690 C   0  0  0  0  0  0  0  0  0  0  0  0
   41.4740   27.1170  -12.9500 C   0  0  0  0  0  0  0  0  0  0  0  0
   41.5440   26.7270  -14.2920 C   0  0  0  0  0  0  0  0  0  0  0  0
   40.4180   27.0190  -15.2030 C   0  0  0  0  0  0  0  0  0  0  0  0
   39.4680   27.8610  -14.6380 O   0  0  0  0  0  0  0  0  0  0  0  0
   38.3680   28.2090  -15.3800 C   0  0  0  0  0  0  0  0  0  0  0  0
   37.4290   29.0410  -14.7700 C   0  0  0  0  0  0  0  0  0  0  0  0
   36.2880   29.4360  -15.4710 C   0  0  0  0  0  0  0  0  0  0  0  0
   36.0840   28.9980  -16.7810 C   0  0  0  0  0  0  0  0  0  0  0  0
   37.0220   28.1680  -17.3880 C   0  0  0  0  0  0  0  0  0  0  0  0
   36.7610   27.7770  -18.6730 O   0  0  0  0  0  0  0  0  0  0  0  0
   38.1640   27.7730  -16.6870 C   0  0  0  0  0  0  0  0  0  0  0  0
   39.1740   26.9010  -17.2870 C   0  0  0  0  0  0  0  0  0  0  0  0
   39.0720   26.4810  -18.4380 O   0  0  0  0  0  0  0  0  0  0  0  0
   40.3440   26.5330  -16.4560 C   0  0  0  0  0  0  0  0  0  0  0  0
   41.3000   25.7200  -17.0370 O   0  0  0  0  0  0  0  0  0  0  0  0
   42.6790   26.0260  -14.7240 C   0  0  0  0  0  0  0  0  0  0  0  0
   43.7410   25.7260  -13.8490 C   0  0  0  0  0  0  0  0  0  0  0  0
   44.9480   24.9900  -14.3860 C   0  0  0  0  0  0  0  0  0  0  0  0
   45.1640   23.7870  -13.7820 F   0  0  0  0  0  0  0  0  0  0  0  0
   46.1110   25.6830  -14.2340 F   0  0  0  0  0  0  0  0  0  0  0  0
   44.3730   25.9652  -10.4957 H   0  0  0  0  0  0  0  0  0  0  0  0
   45.1273   24.8341  -11.6698 H   0  0  0  0  0  0  0  0  0  0  0  0
   45.5908   26.5695  -11.6698 H   0  0  0  0  0  0  0  0  0  0  0  0
   42.4460   27.1516  -11.0182 H   0  0  0  0  0  0  0  0  0  0  0  0
   40.5848   27.6516  -12.5846 H   0  0  0  0  0  0  0  0  0  0  0  0
   37.5874   29.3856  -13.7375 H   0  0  0  0  0  0  0  0  0  0  0  0
   35.5485   30.0934  -14.9904 H   0  0  0  0  0  0  0  0  0  0  0  0
   35.1840   29.3082  -17.3321 H   0  0  0  0  0  0  0  0  0  0  0  0
   36.0420   28.1550  -19.1400 H   0  0  0  0  0  0  0  0  0  0  0  0
   41.8160   25.1480  -16.5030 H   0  0  0  0  0  0  0  0  0  0  0  0
   42.7415   25.7021  -15.7734 H   0  0  0  0  0  0  0  0  0  0  0  0
   44.6980   24.8580  -15.4490 H   0  0  0  0  0  0  0  0  0  0  0  0
  1  2  1  0
  2  3  2  0
  3  4  1  0
  4  5  2  0
  5  6  1  0
  6  7  1  0
  7  8  1  0
  8  9  2  0
  9 10  1  0
 10 11  2  0
 11 12  1  0
 12 13  1  0
 12 14  2  0
 14 15  1  0
 15 16  2  0
 15 17  1  0
 17 18  1  0
  5 19  1  0
 19 20  2  0
 20 21  1  0
 21 22  1  0
 21 23  1  0
 20  2  1  0
 17  6  2  0
 14  8  1  0
  1 24  1  0
  1 25  1  0
  1 26  1  0
  3 27  1  0
  4 28  1  0
  9 29  1  0
 10 30  1  0
 11 31  1  0
 13 32  1  0
 18 33  1  0
 19 34  1  0
 21 35  1  0
M  END
>  <meeko>  (6) 
{"is_sidechain": [false], "free_energy": -6.702, "intermolecular_energy": -8.467, "internal_energy": 0.294}

$$$$
cand_014_out
     RDKit          3D

 35 37  0  0  0  0  0  0  0  0999 V2000
   44.5270   25.7720  -11.4620 C   0  0  0  0  0  0  0  0  0  0  0  0
   43.3600   26.2360  -12.2900 C   0  0  0  0  0  0  0  0  0  0  0  0
   42.2510   26.8030  -11.6450 C   0  0  0  0  0  0  0  0  0  0  0  0
   41.1410   27.2370  -12.3740 C   0  0  0  0  0  0  0  0  0  0  0  0
   41.1100   27.1160  -13.7670 C   0  0  0  0  0  0  0  0  0  0  0  0
   39.9190   27.5640  -14.5180 C   0  0  0  0  0  0  0  0  0  0  0  0
   39.7790   26.9250  -15.7440 O   0  0  0  0  0  0  0  0  0  0  0  0
   38.7140   27.2520  -16.5440 C   0  0  0  0  0  0  0  0  0  0  0  0
   38.6200   26.6000  -17.7740 C   0  0  0  0  0  0  0  0  0  0  0  0
   37.5590   26.8850  -18.6340 C   0  0  0  0  0  0  0  0  0  0  0  0
   36.5900   27.8220  -18.2660 C   0  0  0  0  0  0  0  0  0  0  0  0
   36.6860   28.4710  -17.0380 C   0  0  0  0  0  0  0  0  0  0  0  0
   35.7030   29.3750  -16.7400 O   0  0  0  0  0  0  0  0  0  0  0  0
   37.7480   28.1860  -16.1770 C   0  0  0  0  0  0  0  0  0  0  0  0
   37.8860   28.8460  -14.8780 C   0  0  0  0  0  0  0  0  0  0  0  0
   37.0710   29.6750  -14.4780 O   0  0  0  0  0  0  0  0  0  0  0  0
   39.0540   28.4800  -14.0440 C   0  0  0  0  0  0  0  0  0  0  0  0
   39.1690   29.0980  -12.8130 O   0  0  0  0  0  0  0  0  0  0  0  0
   42.2080   26.5280  -14.4100 C   0  0  0  0  0  0  0  0  0  0  0  0
   43.3330   26.0780  -13.6910 C   0  0  0  0  0  0  0  0  0  0  0  0
   44.4950   25.4780  -14.4500 C   0  0  0  0  0  0  0  0  0  0  0  0
   44.6900   24.1540  -14.1850 F   0  0  0  0  0  0  0  0  0  0  0  0
   45.6860   26.0790  -14.1720 F   0  0  0  0  0  0  0  0  0  0  0  0
   44.2810   25.8698  -10.3943 H   0  0  0  0  0  0  0  0  0  0  0  0
   44.7449   24.7188  -11.6931 H   0  0  0  0  0  0  0  0  0  0  0  0
   45.4085   26.3880  -11.6931 H   0  0  0  0  0  0  0  0  0  0  0  0
   42.2553   26.9074  -10.5500 H   0  0  0  0  0  0  0  0  0  0  0  0
   40.2824   27.6785  -11.8468 H   0  0  0  0  0  0  0  0  0  0  0  0
   39.3818   25.8619  -18.0654 H   0  0  0  0  0  0  0  0  0  0  0  0
   37.4852   26.3710  -19.6037 H   0  0  0  0  0  0  0  0  0  0  0  0
   35.7537   28.0462  -18.9445 H   0  0  0  0  0  0  0  0  0  0  0  0
   35.6350   29.7230  -15.8720 H   0  0  0  0  0  0  0  0  0  0  0  0
   38.7100   29.8970  -12.6450 H   0  0  0  0  0  0  0  0  0  0  0  0
   42.1909   26.4150  -15.5040 H   0  0  0  0  0  0  0  0  0  0  0  0
   44.2053   25.6327  -15.4998 H   0  0  0  0  0  0  0  0  0  0  0  0
  1  2  1  0
  2  3  2  0
  3  4  1  0
  4  5  2  0
  5  6  1  0
  6  7  1  0
  7  8  1  0
  8  9  2  0
  9 10  1  0
 10 11  2  0
 11 12  1  0
 12 13  1  0
 12 14  2  0
 14 15  1  0
 15 16  2  0
 15 17  1  0
 17 18  1  0
  5 19  1  0
 19 20  2  0
 20 21  1  0
 21 22  1  0
 21 23  1  0
 20  2  1  0
 17  6  2  0
 14  8  1  0
  1 24  1  0
  1 25  1  0
  1 26  1  0
  3 27  1  0
  4 28  1  0
  9 29  1  0
 10 30  1  0
 11 31  1  0
 13 32  1  0
 18 33  1  0
 19 34  1  0
 21 35  1  0
M  END
>  <meeko>  (7) 
{"is_sidechain": [false], "free_energy": -6.315, "intermolecular_energy": -7.978, "internal_energy": 0.259}

$$$$
cand_014_out
     RDKit          3D

 35 37  0  0  0  0  0  0  0  0999 V2000
   45.4720   24.5280  -13.6260 C   0  0  0  0  0  0  0  0  0  0  0  0
   44.1570   25.1930  -13.9280 C   0  0  0  0  0  0  0  0  0  0  0  0
   43.5760   25.0100  -15.1920 C   0  0  0  0  0  0  0  0  0  0  0  0
   42.3620   25.6180  -15.5180 C   0  0  0  0  0  0  0  0  0  0  0  0
   41.6940   26.4240  -14.5900 C   0  0  0  0  0  0  0  0  0  0  0  0
   40.4190   27.0730  -14.9610 C   0  0  0  0  0  0  0  0  0  0  0  0
   39.9690   26.7020  -16.2220 O   0  0  0  0  0  0  0  0  0  0  0  0
   38.7950   27.2360  -16.6890 C   0  0  0  0  0  0  0  0  0  0  0  0
   38.3880   26.8510  -17.9670 C   0  0  0  0  0  0  0  0  0  0  0  0
   37.2010   27.3560  -18.5010 C   0  0  0  0  0  0  0  0  0  0  0  0
   36.4210   28.2460  -17.7590 C   0  0  0  0  0  0  0  0  0  0  0  0
   36.8300   28.6290  -16.4850 C   0  0  0  0  0  0  0  0  0  0  0  0
   36.0190   29.5010  -15.8130 O   0  0  0  0  0  0  0  0  0  0  0  0
   38.0180   28.1240  -15.9500 C   0  0  0  0  0  0  0  0  0  0  0  0
   38.4830   28.5000  -14.6150 C   0  0  0  0  0  0  0  0  0  0  0  0
   37.8490   29.2710  -13.8960 O   0  0  0  0  0  0  0  0  0  0  0  0
   39.7600   27.9160  -14.1440 C   0  0  0  0  0  0  0  0  0  0  0  0
   40.1850   28.2660  -12.8760 O   0  0  0  0  0  0  0  0  0  0  0  0
   42.2850   26.6250  -13.3350 C   0  0  0  0  0  0  0  0  0  0  0  0
   43.5130   26.0270  -12.9900 C   0  0  0  0  0  0  0  0  0  0  0  0
   44.0820   26.2640  -11.6100 C   0  0  0  0  0  0  0  0  0  0  0  0
   44.4620   25.1190  -10.9740 F   0  0  0  0  0  0  0  0  0  0  0  0
   43.2030   26.8700  -10.7630 F   0  0  0  0  0  0  0  0  0  0  0  0
   45.6067   24.4599  -12.5364 H   0  0  0  0  0  0  0  0  0  0  0  0
   45.4801   23.5174  -14.0604 H   0  0  0  0  0  0  0  0  0  0  0  0
   46.2908   25.1204  -14.0604 H   0  0  0  0  0  0  0  0  0  0  0  0
   44.0838   24.3790  -15.9363 H   0  0  0  0  0  0  0  0  0  0  0  0
   41.9260   25.4615  -16.5157 H   0  0  0  0  0  0  0  0  0  0  0  0
   39.0015   26.1507  -18.5528 H   0  0  0  0  0  0  0  0  0  0  0  0
   36.8794   27.0524  -19.5082 H   0  0  0  0  0  0  0  0  0  0  0  0
   35.4858   28.6432  -18.1805 H   0  0  0  0  0  0  0  0  0  0  0  0
   35.3960   30.0190  -16.2840 H   0  0  0  0  0  0  0  0  0  0  0  0
   39.6400   28.7950  -12.3280 H   0  0  0  0  0  0  0  0  0  0  0  0
   41.7766   27.2665  -12.6002 H   0  0  0  0  0  0  0  0  0  0  0  0
   44.9497   26.9085  -11.8142 H   0  0  0  0  0  0  0  0  0  0  0  0
  1  2  1  0
  2  3  2  0
  3  4  1  0
  4  5  2  0
  5  6  1  0
  6  7  1  0
  7  8  1  0
  8  9  2  0
  9 10  1  0
 10 11  2  0
 11 12  1  0
 12 13  1  0
 12 14  2  0
 14 15  1  0
 15 16  2  0
 15 17  1  0
 17 18  1  0
  5 19  1  0
 19 20  2  0
 20 21  1  0
 21 22  1  0
 21 23  1  0
 20  2  1  0
 17  6  2  0
 14  8  1  0
  1 24  1  0
  1 25  1  0
  1 26  1  0
  3 27  1  0
  4 28  1  0
  9 29  1  0
 10 30  1  0
 11 31  1  0
 13 32  1  0
 18 33  1  0
 19 34  1  0
 21 35  1  0
M  END
>  <meeko>  (8) 
{"is_sidechain": [false], "free_energy": -5.471, "intermolecular_energy": -7.08, "internal_energy": 0.353}

$$$$
cand_014_out
     RDKit          3D

 35 37  0  0  0  0  0  0  0  0999 V2000
   47.0560   24.1980  -13.2290 C   0  0  0  0  0  0  0  0  0  0  0  0
   45.7300   24.7890  -13.6260 C   0  0  0  0  0  0  0  0  0  0  0  0
   44.6250   23.9390  -13.7780 C   0  0  0  0  0  0  0  0  0  0  0  0
   43.3790   24.4440  -14.1560 C   0  0  0  0  0  0  0  0  0  0  0  0
   43.2020   25.8110  -14.3910 C   0  0  0  0  0  0  0  0  0  0  0  0
   41.8800   26.3230  -14.8070 C   0  0  0  0  0  0  0  0  0  0  0  0
   41.2890   27.1390  -13.8510 O   0  0  0  0  0  0  0  0  0  0  0  0
   40.0550   27.6770  -14.1120 C   0  0  0  0  0  0  0  0  0  0  0  0
   39.4880   28.4770  -13.1190 C   0  0  0  0  0  0  0  0  0  0  0  0
   38.2350   29.0580  -13.3220 C   0  0  0  0  0  0  0  0  0  0  0  0
   37.5480   28.8410  -14.5180 C   0  0  0  0  0  0  0  0  0  0  0  0
   38.1150   28.0430  -15.5080 C   0  0  0  0  0  0  0  0  0  0  0  0
   37.3890   27.8730  -16.6550 O   0  0  0  0  0  0  0  0  0  0  0  0
   39.3690   27.4610  -15.3040 C   0  0  0  0  0  0  0  0  0  0  0  0
   40.0000   26.6160  -16.3190 C   0  0  0  0  0  0  0  0  0  0  0  0
   39.4640   26.3840  -17.4010 O   0  0  0  0  0  0  0  0  0  0  0  0
   41.3270   26.0390  -16.0010 C   0  0  0  0  0  0  0  0  0  0  0  0
   41.9210   25.2530  -16.9710 O   0  0  0  0  0  0  0  0  0  0  0  0
   44.3120   26.6580  -14.2610 C   0  0  0  0  0  0  0  0  0  0  0  0
   45.5790   26.1670  -13.8880 C   0  0  0  0  0  0  0  0  0  0  0  0
   46.7270   27.1390  -13.7400 C   0  0  0  0  0  0  0  0  0  0  0  0
   47.7660   26.8850  -14.5860 F   0  0  0  0  0  0  0  0  0  0  0  0
   47.2730   27.1400  -12.4920 F   0  0  0  0  0  0  0  0  0  0  0  0
   47.1292   24.1654  -12.1319 H   0  0  0  0  0  0  0  0  0  0  0  0
   47.1384   23.1780  -13.6325 H   0  0  0  0  0  0  0  0  0  0  0  0
   47.8696   24.8187  -13.6325 H   0  0  0  0  0  0  0  0  0  0  0  0
   44.7412   22.8602  -13.5971 H   0  0  0  0  0  0  0  0  0  0  0  0
   42.5266   23.7582  -14.2702 H   0  0  0  0  0  0  0  0  0  0  0  0
   40.0283   28.6497  -12.1765 H   0  0  0  0  0  0  0  0  0  0  0  0
   37.7882   29.6877  -12.5385 H   0  0  0  0  0  0  0  0  0  0  0  0
   36.5610   29.2995  -14.6777 H   0  0  0  0  0  0  0  0  0  0  0  0
   37.7780   27.4540  -17.3980 H   0  0  0  0  0  0  0  0  0  0  0  0
   41.3930   24.8160  -17.6090 H   0  0  0  0  0  0  0  0  0  0  0  0
   44.1905   27.7339  -14.4553 H   0  0  0  0  0  0  0  0  0  0  0  0
   46.2564   28.1061  -13.9710 H   0  0  0  0  0  0  0  0  0  0  0  0
  1  2  1  0
  2  3  2  0
  3  4  1  0
  4  5  2  0
  5  6  1  0
  6  7  1  0
  7  8  1  0
  8  9  2  0
  9 10  1  0
 10 11  2  0
 11 12  1  0
 12 13  1  0
 12 14  2  0
 14 15  1  0
 15 16  2  0
 15 17  1  0
 17 18  1  0
  5 19  1  0
 19 20  2  0
 20 21  1  0
 21 22  1  0
 21 23  1  0
 20  2  1  0
 17  6  2  0
 14  8  1  0
  1 24  1  0
  1 25  1  0
  1 26  1  0
  3 27  1  0
  4 28  1  0
  9 29  1  0
 10 30  1  0
 11 31  1  0
 13 32  1  0
 18 33  1  0
 19 34  1  0
 21 35  1  0
M  END
>  <meeko>  (9) 
{"is_sidechain": [false], "free_energy": -5.421, "intermolecular_energy": -6.4, "internal_energy": -0.268}

$$$$
