cand_018_out
     RDKit          3D

 44 47  0  0  0  0  0  0  0  0999 V2000
   44.4990   25.8260  -11.3570 C   0  0  0  0  0  0  0  0  0  0  0  0
   43.3260   26.2740  -12.1870 C   0  0  0  0  0  0  0  0  0  0  0  0
   42.1530   26.7000  -11.5450 C   0  0  0  0  0  0  0  0  0  0  0  0
   41.0490   27.1230  -12.2870 C   0  0  0  0  0  0  0  0  0  0  0  0
   41.0970   27.1450  -13.6850 C   0  0  0  0  0  0  0  0  0  0  0  0
   39.9130   27.5810  -14.4550 C   0  0  0  0  0  0  0  0  0  0  0  0
   39.7910   26.9250  -15.6750 O   0  0  0  0  0  0  0  0  0  0  0  0
   38.7350   27.2350  -16.4930 C   0  0  0  0  0  0  0  0  0  0  0  0
   38.6620   26.5640  -17.7140 C   0  0  0  0  0  0  0  0  0  0  0  0
   37.6100   26.8310  -18.5930 C   0  0  0  0  0  0  0  0  0  0  0  0
   36.6320   27.7670  -18.2510 C   0  0  0  0  0  0  0  0  0  0  0  0
   36.7070   28.4340  -17.0310 C   0  0  0  0  0  0  0  0  0  0  0  0
   35.7160   29.3370  -16.7590 O   0  0  0  0  0  0  0  0  0  0  0  0
   37.7610   28.1670  -16.1520 C   0  0  0  0  0  0  0  0  0  0  0  0
   37.8780   28.8470  -14.8610 C   0  0  0  0  0  0  0  0  0  0  0  0
   37.0530   29.6780  -14.4860 O   0  0  0  0  0  0  0  0  0  0  0  0
   39.0360   28.4980  -14.0060 C   0  0  0  0  0  0  0  0  0  0  0  0
   39.1290   29.1370  -12.7830 O   0  0  0  0  0  0  0  0  0  0  0  0
   42.2710   26.7130  -14.3220 C   0  0  0  0  0  0  0  0  0  0  0  0
   43.3940   26.2760  -13.5940 C   0  0  0  0  0  0  0  0  0  0  0  0
   44.5850   25.8810  -14.2270 N   0  0  0  0  0  0  0  0  0  0  0  0
   45.0290   24.5410  -13.7910 C   0  0  0  0  0  0  0  0  0  0  0  0
   46.5480   24.6010  -13.8980 C   0  0  0  0  0  0  0  0  0  0  0  0
   46.8450   26.0300  -13.4840 C   0  0  0  0  0  0  0  0  0  0  0  0
   45.7240   26.8130  -14.1610 C   0  0  0  0  0  0  0  0  0  0  0  0
   44.2505   25.9209  -10.2896 H   0  0  0  0  0  0  0  0  0  0  0  0
   44.7314   24.7758  -11.5874 H   0  0  0  0  0  0  0  0  0  0  0  0
   45.3723   26.4539  -11.5874 H   0  0  0  0  0  0  0  0  0  0  0  0
   42.1031   26.7006  -10.4461 H   0  0  0  0  0  0  0  0  0  0  0  0
   40.1331   27.4419  -11.7679 H   0  0  0  0  0  0  0  0  0  0  0  0
   39.4317   25.8259  -17.9839 H   0  0  0  0  0  0  0  0  0  0  0  0
   37.5518   26.3030  -19.5563 H   0  0  0  0  0  0  0  0  0  0  0  0
   35.8039   27.9771  -18.9439 H   0  0  0  0  0  0  0  0  0  0  0  0
   34.9980   29.0930  -16.2080 H   0  0  0  0  0  0  0  0  0  0  0  0
   39.7510   29.8260  -12.6600 H   0  0  0  0  0  0  0  0  0  0  0  0
   42.3147   26.7160  -15.4211 H   0  0  0  0  0  0  0  0  0  0  0  0
   44.7178   24.3444  -12.7544 H   0  0  0  0  0  0  0  0  0  0  0  0
   44.5941   23.7334  -14.3981 H   0  0  0  0  0  0  0  0  0  0  0  0
   47.0242   23.8814  -13.2157 H   0  0  0  0  0  0  0  0  0  0  0  0
   46.9297   24.3434  -14.8970 H   0  0  0  0  0  0  0  0  0  0  0  0
   46.8041   26.1432  -12.3906 H   0  0  0  0  0  0  0  0  0  0  0  0
   47.8510   26.3687  -13.7724 H   0  0  0  0  0  0  0  0  0  0  0  0
   45.4614   27.7012  -13.5676 H   0  0  0  0  0  0  0  0  0  0  0  0
   46.0185   27.1725  -15.1580 H   0  0  0  0  0  0  0  0  0  0  0  0
  1  2  1  0
  2  3  2  0
  3  4  1  0
  4  5  2  0
  5  6  1  0
  6  7  1  0
  7  8  1  0
  8  9  2  0
  9 10  1  0
 10 11  2  0
 11 12  1  0
 12 13  1  0
 12 14  2  0
 14 15  1  0
 15 16  2  0
 15 17  1  0
 17 18  1  0
  5 19  1  0
 19 20  2  0
 20 21  1  0
 21 22  1  0
 22 23  1  0
 23 24  1  0
 24 25  1  0
 20  2  1  0
 25 21  1  0
 17  6  2  0
 14  8  1  0
  1 26  1  0
  1 27  1  0
  1 28  1  0
  3 29  1  0
  4 30  1  0
  9 31  1  0
 10 32  1  0
 11 33  1  0
 13 34  1  0
 18 35  1  0
 19 36  1  0
 22 37  1  0
 22 38  1  0
 23 39  1  0
 23 40  1  0
 24 41  1  0
 24 42  1  0
 25 43  1  0
 25 44  1  0
M  END
>  <meeko>  (1) 
{"is_sidechain": [false], "free_energy": -6.852, "intermolecular_energy": -8.054, "internal_energy": 1.292}

$$$$
cand_018_out
     RDKit          3D

 44 47  0  0  0  0  0  0  0  0999 V2000
   44.6900   25.9620  -11.4740 C   0  0  0  0  0  0  0  0  0  0  0  0
   43.5830   26.2360  -12.4560 C   0  0  0  0  0  0  0  0  0  0  0  0
   42.3580   26.7370  -11.9890 C   0  0  0  0  0  0  0  0  0  0  0  0
   41.3130   27.0040  -12.8750 C   0  0  0  0  0  0  0  0  0  0  0  0
   41.4730   26.7900  -14.2480 C   0  0  0  0  0  0  0  0  0  0  0  0
   40.3500   27.0630  -15.1710 C   0  0  0  0  0  0  0  0  0  0  0  0
   39.4030   27.9240  -14.6280 O   0  0  0  0  0  0  0  0  0  0  0  0
   38.3060   28.2620  -15.3790 C   0  0  0  0  0  0  0  0  0  0  0  0
   37.3740   29.1160  -14.7880 C   0  0  0  0  0  0  0  0  0  0  0  0
   36.2350   29.5020  -15.4980 C   0  0  0  0  0  0  0  0  0  0  0  0
   36.0300   29.0350  -16.7980 C   0  0  0  0  0  0  0  0  0  0  0  0
   36.9620   28.1840  -17.3850 C   0  0  0  0  0  0  0  0  0  0  0  0
   36.6990   27.7650  -18.6600 O   0  0  0  0  0  0  0  0  0  0  0  0
   38.1010   27.7980  -16.6730 C   0  0  0  0  0  0  0  0  0  0  0  0
   39.1050   26.9040  -17.2520 C   0  0  0  0  0  0  0  0  0  0  0  0
   38.9990   26.4570  -18.3930 O   0  0  0  0  0  0  0  0  0  0  0  0
   40.2730   26.5490  -16.4120 C   0  0  0  0  0  0  0  0  0  0  0  0
   41.2210   25.7150  -16.9750 O   0  0  0  0  0  0  0  0  0  0  0  0
   42.6990   26.2850  -14.7100 C   0  0  0  0  0  0  0  0  0  0  0  0
   43.7640   26.0020  -13.8330 C   0  0  0  0  0  0  0  0  0  0  0  0
   45.0060   25.5340  -14.2950 N   0  0  0  0  0  0  0  0  0  0  0  0
   45.4960   24.3850  -13.5070 C   0  0  0  0  0  0  0  0  0  0  0  0
   47.0130   24.5120  -13.5690 C   0  0  0  0  0  0  0  0  0  0  0  0
   47.2120   26.0160  -13.5340 C   0  0  0  0  0  0  0  0  0  0  0  0
   46.0890   26.5230  -14.4350 C   0  0  0  0  0  0  0  0  0  0  0  0
   44.3028   26.0578  -10.4489 H   0  0  0  0  0  0  0  0  0  0  0  0
   45.0724   24.9421  -11.6277 H   0  0  0  0  0  0  0  0  0  0  0  0
   45.5040   26.6858  -11.6277 H   0  0  0  0  0  0  0  0  0  0  0  0
   42.2199   26.9212  -10.9134 H   0  0  0  0  0  0  0  0  0  0  0  0
   40.3558   27.3858  -12.4903 H   0  0  0  0  0  0  0  0  0  0  0  0
   37.5362   29.4846  -13.7644 H   0  0  0  0  0  0  0  0  0  0  0  0
   35.4989   30.1743  -15.0329 H   0  0  0  0  0  0  0  0  0  0  0  0
   35.1331   29.3393  -17.3574 H   0  0  0  0  0  0  0  0  0  0  0  0
   36.5110   28.3920  -19.3300 H   0  0  0  0  0  0  0  0  0  0  0  0
   40.9640   25.0700  -17.6050 H   0  0  0  0  0  0  0  0  0  0  0  0
   42.8313   26.1054  -15.7871 H   0  0  0  0  0  0  0  0  0  0  0  0
   45.1413   24.4447  -12.4675 H   0  0  0  0  0  0  0  0  0  0  0  0
   45.1366   23.4214  -13.8972 H   0  0  0  0  0  0  0  0  0  0  0  0
   47.4893   24.0267  -12.7043 H   0  0  0  0  0  0  0  0  0  0  0  0
   47.4604   24.0284  -14.4499 H   0  0  0  0  0  0  0  0  0  0  0  0
   47.1070   26.4065  -12.5110 H   0  0  0  0  0  0  0  0  0  0  0  0
   48.2128   26.3321  -13.8633 H   0  0  0  0  0  0  0  0  0  0  0  0
   45.7493   27.5163  -14.1064 H   0  0  0  0  0  0  0  0  0  0  0  0
   46.4162   26.6296  -15.4798 H   0  0  0  0  0  0  0  0  0  0  0  0
  1  2  1  0
  2  3  2  0
  3  4  1  0
  4  5  2  0
  5  6  1  0
  6  7  1  0
  7  8  1  0
  8  9  2  0
  9 10  1  0
 10 11  2  0
 11 12  1  0
 12 13  1  0
 12 14  2  0
 14 15  1  0
 15 16  2  0
 15 17  1  0
 17 18  1  0
  5 19  1  0
 19 20  2  0
 20 21  1  0
 21 22  1  0
 22 23  1  0
 23 24  1  0
 24 25  1  0
 20  2  1  0
 25 21  1  0
 17  6  2  0
 14  8  1  0
  1 26  1  0
  1 27  1  0
  1 28  1  0
  3 29  1  0
  4 30  1  0
  9 31  1  0
 10 32  1  0
 11 33  1  0
 13 34  1  0
 18 35  1  0
 19 36  1  0
 22 37  1  0
 22 38  1  0
 23 39  1  0
 23 40  1  0
 24 41  1  0
 24 42  1  0
 25 43  1  0
 25 44  1  0
M  END
>  <meeko>  (2) 
{"is_sidechain": [false], "free_energy": -6.571, "intermolecular_energy": -7.823, "internal_energy": 1.392}

$$$$
cand_018_out
     RDKit          3D

 44 47  0  0  0  0  0  0  0  0999 V2000
   47.6400   24.3880  -13.6220 C   0  0  0  0  0  0  0  0  0  0  0  0
   46.2520   24.9390  -13.8100 C   0  0  0  0  0  0  0  0  0  0  0  0
   45.1460   24.0960  -13.6240 C   0  0  0  0  0  0  0  0  0  0  0  0
   43.8470   24.5790  -13.7880 C   0  0  0  0  0  0  0  0  0  0  0  0
   43.6230   25.9170  -14.1290 C   0  0  0  0  0  0  0  0  0  0  0  0
   42.2410   26.4080  -14.3160 C   0  0  0  0  0  0  0  0  0  0  0  0
   41.7490   26.1620  -15.5940 O   0  0  0  0  0  0  0  0  0  0  0  0
   40.4760   26.5670  -15.9030 C   0  0  0  0  0  0  0  0  0  0  0  0
   40.0300   26.3140  -17.2020 C   0  0  0  0  0  0  0  0  0  0  0  0
   38.7430   26.6980  -17.5820 C   0  0  0  0  0  0  0  0  0  0  0  0
   37.9020   27.3330  -16.6660 C   0  0  0  0  0  0  0  0  0  0  0  0
   38.3490   27.5830  -15.3720 C   0  0  0  0  0  0  0  0  0  0  0  0
   37.4750   28.2070  -14.5250 O   0  0  0  0  0  0  0  0  0  0  0  0
   39.6380   27.1980  -14.9910 C   0  0  0  0  0  0  0  0  0  0  0  0
   40.1480   27.4430  -13.6410 C   0  0  0  0  0  0  0  0  0  0  0  0
   39.4660   27.9900  -12.7770 O   0  0  0  0  0  0  0  0  0  0  0  0
   41.5310   27.0050  -13.3410 C   0  0  0  0  0  0  0  0  0  0  0  0
   41.9960   27.2290  -12.0580 O   0  0  0  0  0  0  0  0  0  0  0  0
   44.7330   26.7550  -14.3190 C   0  0  0  0  0  0  0  0  0  0  0  0
   46.0520   26.2880  -14.1650 C   0  0  0  0  0  0  0  0  0  0  0  0
   47.1650   27.1330  -14.3160 N   0  0  0  0  0  0  0  0  0  0  0  0
   48.0900   26.6550  -15.3630 C   0  0  0  0  0  0  0  0  0  0  0  0
   49.4600   27.1280  -14.8930 C   0  0  0  0  0  0  0  0  0  0  0  0
   49.3540   26.9750  -13.3870 C   0  0  0  0  0  0  0  0  0  0  0  0
   47.9350   27.4560  -13.1010 C   0  0  0  0  0  0  0  0  0  0  0  0
   47.8577   24.3016  -12.5472 H   0  0  0  0  0  0  0  0  0  0  0  0
   47.7069   23.3951  -14.0907 H   0  0  0  0  0  0  0  0  0  0  0  0
   48.3697   25.0647  -14.0907 H   0  0  0  0  0  0  0  0  0  0  0  0
   45.3044   23.0435  -13.3460 H   0  0  0  0  0  0  0  0  0  0  0  0
   42.9917   23.9016  -13.6479 H   0  0  0  0  0  0  0  0  0  0  0  0
   40.6916   25.8132  -17.9242 H   0  0  0  0  0  0  0  0  0  0  0  0
   38.3906   26.5000  -18.6050 H   0  0  0  0  0  0  0  0  0  0  0  0
   36.8879   27.6351  -16.9666 H   0  0  0  0  0  0  0  0  0  0  0  0
   37.7980   28.6840  -13.7860 H   0  0  0  0  0  0  0  0  0  0  0  0
   42.7610   27.7520  -11.9220 H   0  0  0  0  0  0  0  0  0  0  0  0
   44.5674   27.8066  -14.5961 H   0  0  0  0  0  0  0  0  0  0  0  0
   48.0605   25.5580  -15.4389 H   0  0  0  0  0  0  0  0  0  0  0  0
   47.8311   27.0372  -16.3615 H   0  0  0  0  0  0  0  0  0  0  0  0
   50.2620   26.4961  -15.3024 H   0  0  0  0  0  0  0  0  0  0  0  0
   49.7087   28.1496  -15.2162 H   0  0  0  0  0  0  0  0  0  0  0  0
   49.4858   25.9257  -13.0845 H   0  0  0  0  0  0  0  0  0  0  0  0
   50.1243   27.5343  -12.8358 H   0  0  0  0  0  0  0  0  0  0  0  0
   47.5181   26.9307  -12.2291 H   0  0  0  0  0  0  0  0  0  0  0  0
   47.9043   28.5307  -12.8684 H   0  0  0  0  0  0  0  0  0  0  0  0
  1  2  1  0
  2  3  2  0
  3  4  1  0
  4  5  2  0
  5  6  1  0
  6  7  1  0
  7  8  1  0
  8  9  2  0
  9 10  1  0
 10 11  2  0
 11 12  1  0
 12 13  1  0
 12 14  2  0
 14 15  1  0
 15 16  2  0
 15 17  1  0
 17 18  1  0
  5 19  1  0
 19 20  2  0
 20 21  1  0
 21 22  1  0
 22 23  1  0
 23 24  1  0
 24 25  1  0
 20  2  1  0
 25 21  1  0
 17  6  2  0
 14  8  1  0
  1 26  1  0
  1 27  1  0
  1 28  1  0
  3 29  1  0
  4 30  1  0
  9 31  1  0
 10 32  1  0
 11 33  1  0
 13 34  1  0
 18 35  1  0
 19 36  1  0
 22 37  1  0
 22 38  1  0
 23 39  1  0
 23 40  1  0
 24 41  1  0
 24 42  1  0
 25 43  1  0
 25 44  1  0
M  END
>  <meeko>  (3) 
{"is_sidechain": [false], "free_energy": -5.671, "intermolecular_energy": -6.152, "internal_energy": 0.779}

$$$$
cand_018_out
     RDKit          3D

 44 47  0  0  0  0  0  0  0  0999 V2000
   46.0010   24.1230  -13.8840 C   0  0  0  0  0  0  0  0  0  0  0  0
   44.7120   24.8780  -14.0670 C   0  0  0  0  0  0  0  0  0  0  0  0
   43.5090   24.1660  -14.1910 C   0  0  0  0  0  0  0  0  0  0  0  0
   42.2980   24.8380  -14.3580 C   0  0  0  0  0  0  0  0  0  0  0  0
   42.2580   26.2350  -14.3920 C   0  0  0  0  0  0  0  0  0  0  0  0
   40.9680   26.9310  -14.5860 C   0  0  0  0  0  0  0  0  0  0  0  0
   40.4240   26.7150  -15.8490 O   0  0  0  0  0  0  0  0  0  0  0  0
   39.2260   27.3040  -16.1640 C   0  0  0  0  0  0  0  0  0  0  0  0
   38.7260   27.0730  -17.4470 C   0  0  0  0  0  0  0  0  0  0  0  0
   37.5100   27.6410  -17.8310 C   0  0  0  0  0  0  0  0  0  0  0  0
   36.7940   28.4360  -16.9350 C   0  0  0  0  0  0  0  0  0  0  0  0
   37.2940   28.6630  -15.6560 C   0  0  0  0  0  0  0  0  0  0  0  0
   36.5420   29.4510  -14.8290 O   0  0  0  0  0  0  0  0  0  0  0  0
   38.5130   28.0960  -15.2710 C   0  0  0  0  0  0  0  0  0  0  0  0
   39.0750   28.3100  -13.9370 C   0  0  0  0  0  0  0  0  0  0  0  0
   38.5010   28.9920  -13.0900 O   0  0  0  0  0  0  0  0  0  0  0  0
   40.3760   27.6710  -13.6310 C   0  0  0  0  0  0  0  0  0  0  0  0
   40.8900   27.8700  -12.3630 O   0  0  0  0  0  0  0  0  0  0  0  0
   43.4650   26.9430  -14.2720 C   0  0  0  0  0  0  0  0  0  0  0  0
   44.6990   26.2860  -14.1090 C   0  0  0  0  0  0  0  0  0  0  0  0
   45.9040   26.9910  -13.9480 N   0  0  0  0  0  0  0  0  0  0  0  0
   46.9130   26.6050  -14.9550 C   0  0  0  0  0  0  0  0  0  0  0  0
   48.2450   26.7960  -14.2380 C   0  0  0  0  0  0  0  0  0  0  0  0
   47.9100   26.3740  -12.8200 C   0  0  0  0  0  0  0  0  0  0  0  0
   46.5220   26.9730  -12.6110 C   0  0  0  0  0  0  0  0  0  0  0  0
   46.2062   24.0028  -12.8100 H   0  0  0  0  0  0  0  0  0  0  0  0
   45.9155   23.1322  -14.3541 H   0  0  0  0  0  0  0  0  0  0  0  0
   46.8234   24.6822  -14.3541 H   0  0  0  0  0  0  0  0  0  0  0  0
   43.5211   23.0666  -14.1561 H   0  0  0  0  0  0  0  0  0  0  0  0
   41.3660   24.2634  -14.4639 H   0  0  0  0  0  0  0  0  0  0  0  0
   39.2888   26.4451  -18.1534 H   0  0  0  0  0  0  0  0  0  0  0  0
   37.1154   27.4616  -18.8420 H   0  0  0  0  0  0  0  0  0  0  0  0
   35.8358   28.8826  -17.2391 H   0  0  0  0  0  0  0  0  0  0  0  0
   36.8470   30.3050  -14.5910 H   0  0  0  0  0  0  0  0  0  0  0  0
   41.3240   28.6730  -12.1540 H   0  0  0  0  0  0  0  0  0  0  0  0
   43.4454   28.0423  -14.3064 H   0  0  0  0  0  0  0  0  0  0  0  0
   46.7800   25.5563  -15.2591 H   0  0  0  0  0  0  0  0  0  0  0  0
   46.8399   27.2014  -15.8764 H   0  0  0  0  0  0  0  0  0  0  0  0
   49.0264   26.1542  -14.6709 H   0  0  0  0  0  0  0  0  0  0  0  0
   48.6430   27.8188  -14.3116 H   0  0  0  0  0  0  0  0  0  0  0  0
   47.8872   25.2782  -12.7271 H   0  0  0  0  0  0  0  0  0  0  0  0
   48.6479   26.7126  -12.0778 H   0  0  0  0  0  0  0  0  0  0  0  0
   45.9328   26.3500  -11.9220 H   0  0  0  0  0  0  0  0  0  0  0  0
   46.5706   27.9782  -12.1669 H   0  0  0  0  0  0  0  0  0  0  0  0
  1  2  1  0
  2  3  2  0
  3  4  1  0
  4  5  2  0
  5  6  1  0
  6  7  1  0
  7  8  1  0
  8  9  2  0
  9 10  1  0
 10 11  2  0
 11 12  1  0
 12 13  1  0
 12 14  2  0
 14 15  1  0
 15 16  2  0
 15 17  1  0
 17 18  1  0
  5 19  1  0
 19 20  2  0
 20 21  1  0
 21 22  1  0
 22 23  1  0
 23 24  1  0
 24 25  1  0
 20  2  1  0
 25 21  1  0
 17  6  2  0
 14  8  1  0
  1 26  1  0
  1 27  1  0
  1 28  1  0
  3 29  1  0
  4 30  1  0
  9 31  1  0
 10 32  1  0
 11 33  1  0
 13 34  1  0
 18 35  1  0
 19 36  1  0
 22 37  1  0
 22 38  1  0
 23 39  1  0
 23 40  1  0
 24 41  1  0
 24 42  1  0
 25 43  1  0
 25 44  1  0
M  END
>  <meeko>  (4) 
{"is_sidechain": [false], "free_energy": -5.527, "intermolecular_energy": -6.045, "internal_energy": 0.841}

$$$$
cand_018_out
     RDKit          3D

 44 47  0  0  0  0  0  0  0  0999 V2000
   45.7150   24.1400  -13.3720 C   0  0  0  0  0  0  0  0  0  0  0  0
   44.4780   24.7780  -13.9450 C   0  0  0  0  0  0  0  0  0  0  0  0
   43.3270   23.9990  -14.1360 C   0  0  0  0  0  0  0  0  0  0  0  0
   42.1640   24.5630  -14.6620 C   0  0  0  0  0  0  0  0  0  0  0  0
   42.1210   25.9210  -14.9970 C   0  0  0  0  0  0  0  0  0  0  0  0
   40.8860   26.4980  -15.5690 C   0  0  0  0  0  0  0  0  0  0  0  0
   40.2030   27.3100  -14.6690 O   0  0  0  0  0  0  0  0  0  0  0  0
   39.0370   27.9100  -15.0710 C   0  0  0  0  0  0  0  0  0  0  0  0
   38.3770   28.7030  -14.1300 C   0  0  0  0  0  0  0  0  0  0  0  0
   37.1860   29.3450  -14.4740 C   0  0  0  0  0  0  0  0  0  0  0  0
   36.6560   29.1960  -15.7570 C   0  0  0  0  0  0  0  0  0  0  0  0
   37.3170   28.4060  -16.6940 C   0  0  0  0  0  0  0  0  0  0  0  0
   36.7430   28.3030  -17.9310 O   0  0  0  0  0  0  0  0  0  0  0  0
   38.5090   27.7620  -16.3480 C   0  0  0  0  0  0  0  0  0  0  0  0
   39.2350   26.9210  -17.3010 C   0  0  0  0  0  0  0  0  0  0  0  0
   38.8350   26.7470  -18.4520 O   0  0  0  0  0  0  0  0  0  0  0  0
   40.4840   26.2780  -16.8340 C   0  0  0  0  0  0  0  0  0  0  0  0
   41.1680   25.4970  -17.7480 O   0  0  0  0  0  0  0  0  0  0  0  0
   43.2760   26.6950  -14.8090 C   0  0  0  0  0  0  0  0  0  0  0  0
   44.4620   26.1460  -14.2850 C   0  0  0  0  0  0  0  0  0  0  0  0
   45.6090   26.9260  -14.0580 N   0  0  0  0  0  0  0  0  0  0  0  0
   46.7470   26.5010  -14.8980 C   0  0  0  0  0  0  0  0  0  0  0  0
   47.9740   26.8280  -14.0560 C   0  0  0  0  0  0  0  0  0  0  0  0
   47.4890   26.5240  -12.6500 C   0  0  0  0  0  0  0  0  0  0  0  0
   46.0630   27.0650  -12.6630 C   0  0  0  0  0  0  0  0  0  0  0  0
   45.6654   24.1656  -12.2734 H   0  0  0  0  0  0  0  0  0  0  0  0
   45.7801   23.0959  -13.7119 H   0  0  0  0  0  0  0  0  0  0  0  0
   46.6035   24.6923  -13.7119 H   0  0  0  0  0  0  0  0  0  0  0  0
   43.3414   22.9322  -13.8683 H   0  0  0  0  0  0  0  0  0  0  0  0
   41.2738   23.9350  -14.8145 H   0  0  0  0  0  0  0  0  0  0  0  0
   38.7948   28.8216  -13.1194 H   0  0  0  0  0  0  0  0  0  0  0  0
   36.6645   29.9690  -13.7333 H   0  0  0  0  0  0  0  0  0  0  0  0
   35.7175   29.7020  -16.0273 H   0  0  0  0  0  0  0  0  0  0  0  0
   36.6650   29.0610  -18.4760 H   0  0  0  0  0  0  0  0  0  0  0  0
   41.2600   24.5760  -17.6020 H   0  0  0  0  0  0  0  0  0  0  0  0
   43.2544   27.7612  -15.0787 H   0  0  0  0  0  0  0  0  0  0  0  0
   46.6948   25.4228  -15.1095 H   0  0  0  0  0  0  0  0  0  0  0  0
   46.7603   27.0040  -15.8761 H   0  0  0  0  0  0  0  0  0  0  0  0
   48.8272   26.1902  -14.3301 H   0  0  0  0  0  0  0  0  0  0  0  0
   48.3358   27.8588  -14.1849 H   0  0  0  0  0  0  0  0  0  0  0  0
   47.5010   25.4421  -12.4515 H   0  0  0  0  0  0  0  0  0  0  0  0
   48.1179   26.9698  -11.8653 H   0  0  0  0  0  0  0  0  0  0  0  0
   45.4219   26.4784  -11.9886 H   0  0  0  0  0  0  0  0  0  0  0  0
   46.0163   28.1084  -12.3178 H   0  0  0  0  0  0  0  0  0  0  0  0
  1  2  1  0
  2  3  2  0
  3  4  1  0
  4  5  2  0
  5  6  1  0
  6  7  1  0
  7  8  1  0
  8  9  2  0
  9 10  1  0
 10 11  2  0
 11 12  1  0
 12 13  1  0
 12 14  2  0
 14 15  1  0
 15 16  2  0
 15 17  1  0
 17 18  1  0
  5 19  1  0
 19 20  2  0
 20 21  1  0
 21 22  1  0
 22 23  1  0
 23 24  1  0
 24 25  1  0
 20  2  1  0
 25 21  1  0
 17  6  2  0
 14  8  1  0
  1 26  1  0
  1 27  1  0
  1 28  1  0
  3 29  1  0
  4 30  1  0
  9 31  1  0
 10 32  1  0
 11 33  1  0
 13 34  1  0
 18 35  1  0
 19 36  1  0
 22 37  1  0
 22 38  1  0
 23 39  1  0
 23 40  1  0
 24 41  1  0
 24 42  1  0
 25 43  1  0
 25 44  1  0
M  END
>  <meeko>  (5) 
{"is_sidechain": [false], "free_energy": -4.883, "intermolecular_energy": -5.293, "internal_energy": 0.847}

$$$$
