cand_051_out
     RDKit          3D

 44 46  0  0  0  0  0  0  0  0999 V2000
   43.7110   26.9430  -11.7960 C   0  0  0  0  0  0  0  0  0  0  0  0
   43.3460   26.3050  -13.1080 C   0  0  0  0  0  0  0  0  0  0  0  0
   42.1920   26.7530  -13.7780 C   0  0  0  0  0  0  0  0  0  0  0  0
   41.7850   26.2030  -15.0040 C   0  0  0  0  0  0  0  0  0  0  0  0
   40.5520   26.6900  -15.6580 C   0  0  0  0  0  0  0  0  0  0  0  0
   39.7920   27.5120  -14.8330 O   0  0  0  0  0  0  0  0  0  0  0  0
   38.6190   28.0340  -15.3150 C   0  0  0  0  0  0  0  0  0  0  0  0
   37.8810   28.8420  -14.4490 C   0  0  0  0  0  0  0  0  0  0  0  0
   36.6790   29.4070  -14.8780 C   0  0  0  0  0  0  0  0  0  0  0  0
   36.2140   29.1650  -16.1720 C   0  0  0  0  0  0  0  0  0  0  0  0
   36.9520   28.3590  -17.0350 C   0  0  0  0  0  0  0  0  0  0  0  0
   36.4400   28.1640  -18.2880 O   0  0  0  0  0  0  0  0  0  0  0  0
   38.1560   27.7920  -16.6050 C   0  0  0  0  0  0  0  0  0  0  0  0
   38.9620   26.9400  -17.4790 C   0  0  0  0  0  0  0  0  0  0  0  0
   38.6230   26.6860  -18.6340 O   0  0  0  0  0  0  0  0  0  0  0  0
   40.2170   26.3830  -16.9250 C   0  0  0  0  0  0  0  0  0  0  0  0
   40.9780   25.5890  -17.7640 O   0  0  0  0  0  0  0  0  0  0  0  0
   42.5490   25.1680  -15.5500 C   0  0  0  0  0  0  0  0  0  0  0  0
   43.6960   24.7100  -14.8980 C   0  0  0  0  0  0  0  0  0  0  0  0
   44.1130   25.2690  -13.6780 C   0  0  0  0  0  0  0  0  0  0  0  0
   45.3700   24.7230  -13.0310 C   0  0  0  0  0  0  0  0  0  0  0  0
   46.6260   24.8170  -13.9220 C   0  0  0  0  0  0  0  0  0  0  0  0
   47.7580   23.9880  -13.3100 C   0  0  0  0  0  0  0  0  0  0  0  0
   47.0920   26.2620  -14.1140 C   0  0  0  0  0  0  0  0  0  0  0  0
   43.3507   26.3132  -10.9692 H   0  0  0  0  0  0  0  0  0  0  0  0
   44.8042   27.0452  -11.7296 H   0  0  0  0  0  0  0  0  0  0  0  0
   43.2451   27.9372  -11.7296 H   0  0  0  0  0  0  0  0  0  0  0  0
   41.5916   27.5574  -13.3280 H   0  0  0  0  0  0  0  0  0  0  0  0
   38.2463   29.0334  -13.4292 H   0  0  0  0  0  0  0  0  0  0  0  0
   36.0972   30.0439  -14.1955 H   0  0  0  0  0  0  0  0  0  0  0  0
   35.2663   29.6102  -16.5092 H   0  0  0  0  0  0  0  0  0  0  0  0
   36.2180   27.3000  -18.5750 H   0  0  0  0  0  0  0  0  0  0  0  0
   41.8100   25.2680  -17.4770 H   0  0  0  0  0  0  0  0  0  0  0  0
   42.2440   24.7097  -16.5024 H   0  0  0  0  0  0  0  0  0  0  0  0
   44.2840   23.8965  -15.3479 H   0  0  0  0  0  0  0  0  0  0  0  0
   45.5579   25.2901  -12.1073 H   0  0  0  0  0  0  0  0  0  0  0  0
   45.1925   23.6538  -12.8430 H   0  0  0  0  0  0  0  0  0  0  0  0
   46.3587   24.4197  -14.9123 H   0  0  0  0  0  0  0  0  0  0  0  0
   47.6946   24.0344  -12.2128 H   0  0  0  0  0  0  0  0  0  0  0  0
   47.6658   22.9423  -13.6387 H   0  0  0  0  0  0  0  0  0  0  0  0
   48.7271   24.3916  -13.6387 H   0  0  0  0  0  0  0  0  0  0  0  0
   47.2436   26.7320  -13.1311 H   0  0  0  0  0  0  0  0  0  0  0  0
   48.0385   26.2706  -14.6745 H   0  0  0  0  0  0  0  0  0  0  0  0
   46.3289   26.8220  -14.6745 H   0  0  0  0  0  0  0  0  0  0  0  0
  1  2  1  0
  2  3  2  0
  3  4  1  0
  4  5  1  0
  5  6  1  0
  6  7  1  0
  7  8  2  0
  8  9  1  0
  9 10  2  0
 10 11  1  0
 11 12  1  0
 11 13  2  0
 13 14  1  0
 14 15  2  0
 14 16  1  0
 16 17  1  0
  4 18  2  0
 18 19  1  0
 19 20  2  0
 20 21  1  0
 21 22  1  0
 22 23  1  0
 22 24  1  0
 20  2  1  0
 16  5  2  0
 13  7  1  0
  1 25  1  0
  1 26  1  0
  1 27  1  0
  3 28  1  0
  8 29  1  0
  9 30  1  0
 10 31  1  0
 12 32  1  0
 17 33  1  0
 18 34  1  0
 19 35  1  0
 21 36  1  0
 21 37  1  0
 22 38  1  0
 23 39  1  0
 23 40  1  0
 23 41  1  0
 24 42  1  0
 24 43  1  0
 24 44  1  0
M  END
>  <meeko>  (1) 
{"is_sidechain": [false], "free_energy": -7.938, "intermolecular_energy": -9.794, "internal_energy": -0.181}

$$$$
cand_051_out
     RDKit          3D

 44 46  0  0  0  0  0  0  0  0999 V2000
   44.1760   26.5640  -11.5340 C   0  0  0  0  0  0  0  0  0  0  0  0
   43.5780   26.1650  -12.8550 C   0  0  0  0  0  0  0  0  0  0  0  0
   42.3770   26.7750  -13.2640 C   0  0  0  0  0  0  0  0  0  0  0  0
   41.7570   26.4500  -14.4810 C   0  0  0  0  0  0  0  0  0  0  0  0
   40.4830   27.1000  -14.8570 C   0  0  0  0  0  0  0  0  0  0  0  0
   40.0430   26.7320  -16.1230 O   0  0  0  0  0  0  0  0  0  0  0  0
   38.8710   27.2630  -16.5980 C   0  0  0  0  0  0  0  0  0  0  0  0
   38.4740   26.8770  -17.8800 C   0  0  0  0  0  0  0  0  0  0  0  0
   37.2890   27.3790  -18.4220 C   0  0  0  0  0  0  0  0  0  0  0  0
   36.5010   28.2650  -17.6850 C   0  0  0  0  0  0  0  0  0  0  0  0
   36.9000   28.6480  -16.4060 C   0  0  0  0  0  0  0  0  0  0  0  0
   36.0810   29.5180  -15.7390 O   0  0  0  0  0  0  0  0  0  0  0  0
   38.0860   28.1460  -15.8630 C   0  0  0  0  0  0  0  0  0  0  0  0
   38.5410   28.5220  -14.5250 C   0  0  0  0  0  0  0  0  0  0  0  0
   37.8990   29.2910  -13.8110 O   0  0  0  0  0  0  0  0  0  0  0  0
   39.8160   27.9400  -14.0450 C   0  0  0  0  0  0  0  0  0  0  0  0
   40.2290   28.2920  -12.7740 O   0  0  0  0  0  0  0  0  0  0  0  0
   42.3530   25.4780  -15.2880 C   0  0  0  0  0  0  0  0  0  0  0  0
   43.5440   24.8610  -14.8970 C   0  0  0  0  0  0  0  0  0  0  0  0
   44.1730   25.1950  -13.6860 C   0  0  0  0  0  0  0  0  0  0  0  0
   45.4660   24.4860  -13.3300 C   0  0  0  0  0  0  0  0  0  0  0  0
   46.6900   24.9740  -14.1310 C   0  0  0  0  0  0  0  0  0  0  0  0
   47.9600   24.3080  -13.5940 C   0  0  0  0  0  0  0  0  0  0  0  0
   46.8460   26.4960  -14.0790 C   0  0  0  0  0  0  0  0  0  0  0  0
   43.5640   26.1557  -10.7162 H   0  0  0  0  0  0  0  0  0  0  0  0
   45.1992   26.1670  -11.4598 H   0  0  0  0  0  0  0  0  0  0  0  0
   44.2022   27.6612  -11.4598 H   0  0  0  0  0  0  0  0  0  0  0  0
   41.9109   27.5279  -12.6113 H   0  0  0  0  0  0  0  0  0  0  0  0
   39.0936   26.1788  -18.4618 H   0  0  0  0  0  0  0  0  0  0  0  0
   36.9757   27.0757  -19.4319 H   0  0  0  0  0  0  0  0  0  0  0  0
   35.5676   28.6597  -18.1128 H   0  0  0  0  0  0  0  0  0  0  0  0
   36.4160   30.3400  -15.4390 H   0  0  0  0  0  0  0  0  0  0  0  0
   39.9100   29.0800  -12.3790 H   0  0  0  0  0  0  0  0  0  0  0  0
   41.8802   25.1957  -16.2403 H   0  0  0  0  0  0  0  0  0  0  0  0
   43.9974   24.1000  -15.5491 H   0  0  0  0  0  0  0  0  0  0  0  0
   45.6658   24.6474  -12.2604 H   0  0  0  0  0  0  0  0  0  0  0  0
   45.3255   23.4238  -13.5791 H   0  0  0  0  0  0  0  0  0  0  0  0
   46.5301   24.6917  -15.1821 H   0  0  0  0  0  0  0  0  0  0  0  0
   47.9420   24.3174  -12.4942 H   0  0  0  0  0  0  0  0  0  0  0  0
   48.0080   23.2687  -13.9510 H   0  0  0  0  0  0  0  0  0  0  0  0
   48.8423   24.8595  -13.9510 H   0  0  0  0  0  0  0  0  0  0  0  0
   46.8798   26.8255  -13.0301 H   0  0  0  0  0  0  0  0  0  0  0  0
   47.7786   26.7865  -14.5848 H   0  0  0  0  0  0  0  0  0  0  0  0
   45.9917   26.9696  -14.5848 H   0  0  0  0  0  0  0  0  0  0  0  0
  1  2  1  0
  2  3  2  0
  3  4  1  0
  4  5  1  0
  5  6  1  0
  6  7  1  0
  7  8  2  0
  8  9  1  0
  9 10  2  0
 10 11  1  0
 11 12  1  0
 11 13  2  0
 13 14  1  0
 14 15  2  0
 14 16  1  0
 16 17  1  0
  4 18  2  0
 18 19  1  0
 19 20  2  0
 20 21  1  0
 21 22  1  0
 22 23  1  0
 22 24  1  0
 20  2  1  0
 16  5  2  0
 13  7  1  0
  1 25  1  0
  1 26  1  0
  1 27  1  0
  3 28  1  0
  8 29  1  0
  9 30  1  0
 10 31  1  0
 12 32  1  0
 17 33  1  0
 18 34  1  0
 19 35  1  0
 21 36  1  0
 21 37  1  0
 22 38  1  0
 23 39  1  0
 23 40  1  0
 23 41  1  0
 24 42  1  0
 24 43  1  0
 24 44  1  0
M  END
>  <meeko>  (2) 
{"is_sidechain": [false], "free_energy": -7.259, "intermolecular_energy": -9.108, "internal_energy": -0.03}

$$$$
