cand_056_out
     RDKit          3D

 50 53  0  0  0  0  0  0  0  0999 V2000
   46.7360   25.1500  -14.3670 C   0  0  0  0  0  0  0  0  0  0  0  0
   45.4000   25.7170  -14.5540 N   0  0  0  0  0  0  0  0  0  0  0  0
   44.3770   24.6450  -14.5530 C   0  0  0  0  0  0  0  0  0  0  0  0
   42.9390   25.2020  -14.6910 C   0  0  0  0  0  0  0  0  0  0  0  0
   42.6690   26.1720  -13.6040 N   0  0  0  0  0  0  0  0  0  0  0  0
   41.3400   26.6290  -13.5770 C   0  0  0  0  0  0  0  0  0  0  0  0
   40.5610   26.7250  -14.7460 C   0  0  0  0  0  0  0  0  0  0  0  0
   39.2320   27.1720  -14.7180 C   0  0  0  0  0  0  0  0  0  0  0  0
   38.4260   27.2880  -15.9510 C   0  0  0  0  0  0  0  0  0  0  0  0
   37.4920   28.3160  -15.8930 O   0  0  0  0  0  0  0  0  0  0  0  0
   36.6780   28.5340  -16.9740 C   0  0  0  0  0  0  0  0  0  0  0  0
   35.7660   29.5860  -16.8780 C   0  0  0  0  0  0  0  0  0  0  0  0
   34.9060   29.8610  -17.9430 C   0  0  0  0  0  0  0  0  0  0  0  0
   34.9570   29.0840  -19.1030 C   0  0  0  0  0  0  0  0  0  0  0  0
   35.8680   28.0360  -19.1960 C   0  0  0  0  0  0  0  0  0  0  0  0
   35.8650   27.3150  -20.3590 O   0  0  0  0  0  0  0  0  0  0  0  0
   36.7290   27.7610  -18.1300 C   0  0  0  0  0  0  0  0  0  0  0  0
   37.7010   26.6680  -18.1870 C   0  0  0  0  0  0  0  0  0  0  0  0
   37.8020   25.9360  -19.1690 O   0  0  0  0  0  0  0  0  0  0  0  0
   38.5730   26.4660  -17.0060 C   0  0  0  0  0  0  0  0  0  0  0  0
   39.4780   25.4230  -17.0640 O   0  0  0  0  0  0  0  0  0  0  0  0
   38.6830   27.5500  -13.4880 C   0  0  0  0  0  0  0  0  0  0  0  0
   39.4400   27.4660  -12.3190 C   0  0  0  0  0  0  0  0  0  0  0  0
   40.7700   27.0060  -12.3480 C   0  0  0  0  0  0  0  0  0  0  0  0
   41.5660   26.9220  -11.0690 C   0  0  0  0  0  0  0  0  0  0  0  0
   42.1230   28.1220  -10.7160 F   0  0  0  0  0  0  0  0  0  0  0  0
   42.6180   26.0560  -11.1340 F   0  0  0  0  0  0  0  0  0  0  0  0
   40.8260   26.5510   -9.9830 F   0  0  0  0  0  0  0  0  0  0  0  0
   43.6640   27.2700  -13.5980 C   0  0  0  0  0  0  0  0  0  0  0  0
   45.0920   26.6850  -13.4760 C   0  0  0  0  0  0  0  0  0  0  0  0
   46.9488   25.0597  -13.2916 H   0  0  0  0  0  0  0  0  0  0  0  0
   46.7809   24.1553  -14.8344 H   0  0  0  0  0  0  0  0  0  0  0  0
   47.4826   25.8088  -14.8344 H   0  0  0  0  0  0  0  0  0  0  0  0
   45.3870   26.1970  -15.4540 H   0  0  0  0  0  0  0  0  0  0  0  0
   44.5755   23.9664  -15.3957 H   0  0  0  0  0  0  0  0  0  0  0  0
   44.4423   24.1197  -13.5888 H   0  0  0  0  0  0  0  0  0  0  0  0
   42.8342   25.7052  -15.6636 H   0  0  0  0  0  0  0  0  0  0  0  0
   42.2204   24.3719  -14.6233 H   0  0  0  0  0  0  0  0  0  0  0  0
   41.0082   26.4409  -15.7100 H   0  0  0  0  0  0  0  0  0  0  0  0
   35.7248   30.1976  -15.9646 H   0  0  0  0  0  0  0  0  0  0  0  0
   34.1874   30.6905  -17.8686 H   0  0  0  0  0  0  0  0  0  0  0  0
   34.2784   29.3002  -19.9413 H   0  0  0  0  0  0  0  0  0  0  0  0
   35.9370   26.3810  -20.3310 H   0  0  0  0  0  0  0  0  0  0  0  0
   39.1750   24.5370  -17.0280 H   0  0  0  0  0  0  0  0  0  0  0  0
   37.6467   27.9162  -13.4422 H   0  0  0  0  0  0  0  0  0  0  0  0
   38.9906   27.7638  -11.3601 H   0  0  0  0  0  0  0  0  0  0  0  0
   43.5825   27.8414  -14.5344 H   0  0  0  0  0  0  0  0  0  0  0  0
   43.4688   27.9315  -12.7411 H   0  0  0  0  0  0  0  0  0  0  0  0
   45.8173   27.5106  -13.5248 H   0  0  0  0  0  0  0  0  0  0  0  0
   45.1542   26.1498  -12.5170 H   0  0  0  0  0  0  0  0  0  0  0  0
  1  2  1  0
  2  3  1  0
  3  4  1  0
  4  5  1  0
  5  6  1  0
  6  7  2  0
  7  8  1  0
  8  9  1  0
  9 10  1  0
 10 11  1  0
 11 12  2  0
 12 13  1  0
 13 14  2  0
 14 15  1  0
 15 16  1  0
 15 17  2  0
 17 18  1  0
 18 19  2  0
 18 20  1  0
 20 21  1  0
  8 22  2  0
 22 23  1  0
 23 24  2  0
 24 25  1  0
 25 26  1  0
 25 27  1  0
 25 28  1  0
  5 29  1  0
 29 30  1  0
 30  2  1  0
 24  6  1  0
 20  9  2  0
 17 11  1  0
  1 31  1  0
  1 32  1  0
  1 33  1  0
  2 34  1  0
  3 35  1  0
  3 36  1  0
  4 37  1  0
  4 38  1  0
  7 39  1  0
 12 40  1  0
 13 41  1  0
 14 42  1  0
 16 43  1  0
 21 44  1  0
 22 45  1  0
 23 46  1  0
 29 47  1  0
 29 48  1  0
 30 49  1  0
 30 50  1  0
M  CHG  1   2   1
M  END
>  <meeko>  (1) 
{"is_sidechain": [false], "free_energy": -1.967, "intermolecular_energy": -2.427, "internal_energy": 0.417}

$$$$
cand_056_out
     RDKit          3D

 50 53  0  0  0  0  0  0  0  0999 V2000
   47.4580   25.4330  -14.2910 C   0  0  0  0  0  0  0  0  0  0  0  0
   46.1080   25.7530  -13.8290 N   0  0  0  0  0  0  0  0  0  0  0  0
   45.6820   27.0750  -14.3460 C   0  0  0  0  0  0  0  0  0  0  0  0
   44.2350   27.4330  -13.9300 C   0  0  0  0  0  0  0  0  0  0  0  0
   43.3040   26.3760  -14.3890 N   0  0  0  0  0  0  0  0  0  0  0  0
   41.9500   26.6850  -14.1680 C   0  0  0  0  0  0  0  0  0  0  0  0
   41.0300   26.8000  -15.2270 C   0  0  0  0  0  0  0  0  0  0  0  0
   39.6770   27.0980  -15.0060 C   0  0  0  0  0  0  0  0  0  0  0  0
   38.7200   27.2350  -16.1240 C   0  0  0  0  0  0  0  0  0  0  0  0
   37.8530   28.3100  -15.9650 O   0  0  0  0  0  0  0  0  0  0  0  0
   36.9130   28.5520  -16.9340 C   0  0  0  0  0  0  0  0  0  0  0  0
   36.0730   29.6500  -16.7410 C   0  0  0  0  0  0  0  0  0  0  0  0
   35.0920   29.9500  -17.6880 C   0  0  0  0  0  0  0  0  0  0  0  0
   34.9510   29.1540  -18.8270 C   0  0  0  0  0  0  0  0  0  0  0  0
   35.7900   28.0600  -19.0170 C   0  0  0  0  0  0  0  0  0  0  0  0
   35.5970   27.3230  -20.1530 O   0  0  0  0  0  0  0  0  0  0  0  0
   36.7720   27.7590  -18.0690 C   0  0  0  0  0  0  0  0  0  0  0  0
   37.6740   26.6180  -18.2300 C   0  0  0  0  0  0  0  0  0  0  0  0
   37.6080   25.8670  -19.2000 O   0  0  0  0  0  0  0  0  0  0  0  0
   38.6850   26.3900  -17.1710 C   0  0  0  0  0  0  0  0  0  0  0  0
   39.5240   25.3020  -17.3250 O   0  0  0  0  0  0  0  0  0  0  0  0
   39.2470   27.3060  -13.6920 C   0  0  0  0  0  0  0  0  0  0  0  0
   40.1450   27.2010  -12.6280 C   0  0  0  0  0  0  0  0  0  0  0  0
   41.4990   26.8900  -12.8520 C   0  0  0  0  0  0  0  0  0  0  0  0
   42.4490   26.7790  -11.6840 C   0  0  0  0  0  0  0  0  0  0  0  0
   41.8250   26.9620  -10.4790 F   0  0  0  0  0  0  0  0  0  0  0  0
   43.4500   27.7070  -11.7010 F   0  0  0  0  0  0  0  0  0  0  0  0
   43.0540   25.5600  -11.5800 F   0  0  0  0  0  0  0  0  0  0  0  0
   43.6920   25.0450  -13.8650 C   0  0  0  0  0  0  0  0  0  0  0  0
   45.1470   24.7200  -14.2810 C   0  0  0  0  0  0  0  0  0  0  0  0
   48.1153   25.2772  -13.4229 H   0  0  0  0  0  0  0  0  0  0  0  0
   47.4299   24.5166  -14.8988 H   0  0  0  0  0  0  0  0  0  0  0  0
   47.8442   26.2645  -14.8988 H   0  0  0  0  0  0  0  0  0  0  0  0
   46.1230   25.7770  -12.8090 H   0  0  0  0  0  0  0  0  0  0  0  0
   46.3631   27.8442  -13.9529 H   0  0  0  0  0  0  0  0  0  0  0  0
   45.7140   27.0315  -15.4447 H   0  0  0  0  0  0  0  0  0  0  0  0
   44.1803   27.5171  -12.8346 H   0  0  0  0  0  0  0  0  0  0  0  0
   43.9516   28.3910  -14.3903 H   0  0  0  0  0  0  0  0  0  0  0  0
   41.3823   26.6518  -16.2585 H   0  0  0  0  0  0  0  0  0  0  0  0
   36.1838   30.2777  -15.8445 H   0  0  0  0  0  0  0  0  0  0  0  0
   34.4290   30.8147  -17.5369 H   0  0  0  0  0  0  0  0  0  0  0  0
   34.1780   29.3914  -19.5727 H   0  0  0  0  0  0  0  0  0  0  0  0
   35.7170   27.7180  -20.9940 H   0  0  0  0  0  0  0  0  0  0  0  0
   40.2810   25.3680  -17.8730 H   0  0  0  0  0  0  0  0  0  0  0  0
   38.1936   27.5542  -13.4950 H   0  0  0  0  0  0  0  0  0  0  0  0
   39.7890   27.3637  -11.6000 H   0  0  0  0  0  0  0  0  0  0  0  0
   43.6186   25.0493  -12.7675 H   0  0  0  0  0  0  0  0  0  0  0  0
   43.0172   24.2814  -14.2793 H   0  0  0  0  0  0  0  0  0  0  0  0
   45.4332   23.7540  -13.8395 H   0  0  0  0  0  0  0  0  0  0  0  0
   45.1822   24.6873  -15.3800 H   0  0  0  0  0  0  0  0  0  0  0  0
  1  2  1  0
  2  3  1  0
  3  4  1  0
  4  5  1  0
  5  6  1  0
  6  7  2  0
  7  8  1  0
  8  9  1  0
  9 10  1  0
 10 11  1  0
 11 12  2  0
 12 13  1  0
 13 14  2  0
 14 15  1  0
 15 16  1  0
 15 17  2  0
 17 18  1  0
 18 19  2  0
 18 20  1  0
 20 21  1  0
  8 22  2  0
 22 23  1  0
 23 24  2  0
 24 25  1  0
 25 26  1  0
 25 27  1  0
 25 28  1  0
  5 29  1  0
 29 30  1  0
 30  2  1  0
 24  6  1  0
 20  9  2  0
 17 11  1  0
  1 31  1  0
  1 32  1  0
  1 33  1  0
  2 34  1  0
  3 35  1  0
  3 36  1  0
  4 37  1  0
  4 38  1  0
  7 39  1  0
 12 40  1  0
 13 41  1  0
 14 42  1  0
 16 43  1  0
 21 44  1  0
 22 45  1  0
 23 46  1  0
 29 47  1  0
 29 48  1  0
 30 49  1  0
 30 50  1  0
M  CHG  1   2   1
M  END
>  <meeko>  (2) 
{"is_sidechain": [false], "free_energy": -1.568, "intermolecular_energy": -3.812, "internal_energy": 2.294}

$$$$
cand_056_out
     RDKit          3D

 50 53  0  0  0  0  0  0  0  0999 V2000
   49.5800   28.2010  -13.0240 C   0  0  0  0  0  0  0  0  0  0  0  0
   48.4290   27.3070  -13.1490 N   0  0  0  0  0  0  0  0  0  0  0  0
   47.3350   27.7400  -12.2490 C   0  0  0  0  0  0  0  0  0  0  0  0
   46.0720   26.8560  -12.3870 C   0  0  0  0  0  0  0  0  0  0  0  0
   45.6100   26.8560  -13.7950 N   0  0  0  0  0  0  0  0  0  0  0  0
   44.3910   26.1830  -13.9870 C   0  0  0  0  0  0  0  0  0  0  0  0
   43.1870   26.8750  -14.2180 C   0  0  0  0  0  0  0  0  0  0  0  0
   41.9720   26.2030  -14.4190 C   0  0  0  0  0  0  0  0  0  0  0  0
   40.7080   26.9360  -14.6420 C   0  0  0  0  0  0  0  0  0  0  0  0
   40.1880   26.7430  -15.9170 O   0  0  0  0  0  0  0  0  0  0  0  0
   39.0150   27.3670  -16.2550 C   0  0  0  0  0  0  0  0  0  0  0  0
   38.5220   27.1330  -17.5400 C   0  0  0  0  0  0  0  0  0  0  0  0
   37.3320   27.7400  -17.9500 C   0  0  0  0  0  0  0  0  0  0  0  0
   36.6370   28.5790  -17.0760 C   0  0  0  0  0  0  0  0  0  0  0  0
   37.1310   28.8100  -15.7950 C   0  0  0  0  0  0  0  0  0  0  0  0
   36.4020   29.6420  -14.9920 O   0  0  0  0  0  0  0  0  0  0  0  0
   38.3210   28.2030  -15.3850 C   0  0  0  0  0  0  0  0  0  0  0  0
   38.8760   28.4200  -14.0490 C   0  0  0  0  0  0  0  0  0  0  0  0
   38.3270   29.1490  -13.2250 O   0  0  0  0  0  0  0  0  0  0  0  0
   40.1390   27.7230  -13.7100 C   0  0  0  0  0  0  0  0  0  0  0  0
   40.6620   27.9440  -12.4500 O   0  0  0  0  0  0  0  0  0  0  0  0
   41.9670   24.8060  -14.3660 C   0  0  0  0  0  0  0  0  0  0  0  0
   43.1490   24.1020  -14.1330 C   0  0  0  0  0  0  0  0  0  0  0  0
   44.3690   24.7780  -13.9440 C   0  0  0  0  0  0  0  0  0  0  0  0
   45.6340   23.9920  -13.6970 C   0  0  0  0  0  0  0  0  0  0  0  0
   45.4290   22.6380  -13.7340 F   0  0  0  0  0  0  0  0  0  0  0  0
   46.1950   24.2250  -12.4750 F   0  0  0  0  0  0  0  0  0  0  0  0
   46.6120   24.2200  -14.6220 F   0  0  0  0  0  0  0  0  0  0  0  0
   46.6790   26.4020  -14.7160 C   0  0  0  0  0  0  0  0  0  0  0  0
   47.9340   27.2910  -14.5450 C   0  0  0  0  0  0  0  0  0  0  0  0
   49.7985   28.3707  -11.9594 H   0  0  0  0  0  0  0  0  0  0  0  0
   50.4545   27.7430  -13.5093 H   0  0  0  0  0  0  0  0  0  0  0  0
   49.3526   29.1616  -13.5093 H   0  0  0  0  0  0  0  0  0  0  0  0
   48.7310   26.3680  -12.8870 H   0  0  0  0  0  0  0  0  0  0  0  0
   47.6911   27.6874  -11.2096 H   0  0  0  0  0  0  0  0  0  0  0  0
   47.0575   28.7670  -12.5287 H   0  0  0  0  0  0  0  0  0  0  0  0
   46.3116   25.8268  -12.0814 H   0  0  0  0  0  0  0  0  0  0  0  0
   45.2755   27.2581  -11.7437 H   0  0  0  0  0  0  0  0  0  0  0  0
   43.1992   27.9747  -14.2416 H   0  0  0  0  0  0  0  0  0  0  0  0
   39.0692   26.4721  -18.2283 H   0  0  0  0  0  0  0  0  0  0  0  0
   36.9422   27.5569  -18.9622 H   0  0  0  0  0  0  0  0  0  0  0  0
   35.7004   29.0567  -17.3994 H   0  0  0  0  0  0  0  0  0  0  0  0
   35.9910   29.3060  -14.2190 H   0  0  0  0  0  0  0  0  0  0  0  0
   40.4030   28.7000  -11.9610 H   0  0  0  0  0  0  0  0  0  0  0  0
   41.0242   24.2577  -14.5091 H   0  0  0  0  0  0  0  0  0  0  0  0
   43.1270   23.0028  -14.0965 H   0  0  0  0  0  0  0  0  0  0  0  0
   46.9380   25.3576  -14.4876 H   0  0  0  0  0  0  0  0  0  0  0  0
   46.3200   26.4778  -15.7530 H   0  0  0  0  0  0  0  0  0  0  0  0
   48.7311   26.9061  -15.1980 H   0  0  0  0  0  0  0  0  0  0  0  0
   47.6547   28.3205  -14.8135 H   0  0  0  0  0  0  0  0  0  0  0  0
  1  2  1  0
  2  3  1  0
  3  4  1  0
  4  5  1  0
  5  6  1  0
  6  7  2  0
  7  8  1  0
  8  9  1  0
  9 10  1  0
 10 11  1  0
 11 12  2  0
 12 13  1  0
 13 14  2  0
 14 15  1  0
 15 16  1  0
 15 17  2  0
 17 18  1  0
 18 19  2  0
 18 20  1  0
 20 21  1  0
  8 22  2  0
 22 23  1  0
 23 24  2  0
 24 25  1  0
 25 26  1  0
 25 27  1  0
 25 28  1  0
  5 29  1  0
 29 30  1  0
 30  2  1  0
 24  6  1  0
 20  9  2  0
 17 11  1  0
  1 31  1  0
  1 32  1  0
  1 33  1  0
  2 34  1  0
  3 35  1  0
  3 36  1  0
  4 37  1  0
  4 38  1  0
  7 39  1  0
 12 40  1  0
 13 41  1  0
 14 42  1  0
 16 43  1  0
 21 44  1  0
 22 45  1  0
 23 46  1  0
 29 47  1  0
 29 48  1  0
 30 49  1  0
 30 50  1  0
M  CHG  1   2   1
M  END
>  <meeko>  (3) 
{"is_sidechain": [false], "free_energy": -0.75, "intermolecular_energy": -2.728, "internal_energy": 2.219}

$$$$
cand_056_out
     RDKit          3D

 50 53  0  0  0  0  0  0  0  0999 V2000
   49.5790   28.1040  -13.3690 C   0  0  0  0  0  0  0  0  0  0  0  0
   48.4430   27.1860  -13.4450 N   0  0  0  0  0  0  0  0  0  0  0  0
   47.3100   27.6950  -12.6370 C   0  0  0  0  0  0  0  0  0  0  0  0
   46.0620   26.7840  -12.7310 C   0  0  0  0  0  0  0  0  0  0  0  0
   45.6560   26.6330  -14.1480 N   0  0  0  0  0  0  0  0  0  0  0  0
   44.4520   25.9260  -14.3150 C   0  0  0  0  0  0  0  0  0  0  0  0
   43.2940   26.5410  -14.8270 C   0  0  0  0  0  0  0  0  0  0  0  0
   42.0950   25.8350  -15.0040 C   0  0  0  0  0  0  0  0  0  0  0  0
   40.8770   26.4900  -15.5240 C   0  0  0  0  0  0  0  0  0  0  0  0
   40.2280   27.2640  -14.5690 O   0  0  0  0  0  0  0  0  0  0  0  0
   39.0830   27.9290  -14.9220 C   0  0  0  0  0  0  0  0  0  0  0  0
   38.4720   28.7060  -13.9360 C   0  0  0  0  0  0  0  0  0  0  0  0
   37.3010   29.4080  -14.2290 C   0  0  0  0  0  0  0  0  0  0  0  0
   36.7400   29.3330  -15.5060 C   0  0  0  0  0  0  0  0  0  0  0  0
   37.3510   28.5580  -16.4880 C   0  0  0  0  0  0  0  0  0  0  0  0
   36.7490   28.5280  -17.7160 O   0  0  0  0  0  0  0  0  0  0  0  0
   38.5240   27.8550  -16.1950 C   0  0  0  0  0  0  0  0  0  0  0  0
   39.1970   27.0280  -17.1970 C   0  0  0  0  0  0  0  0  0  0  0  0
   38.7620   26.9060  -18.3400 O   0  0  0  0  0  0  0  0  0  0  0  0
   40.4380   26.3310  -16.7870 C   0  0  0  0  0  0  0  0  0  0  0  0
   41.0600   25.5420  -17.7360 O   0  0  0  0  0  0  0  0  0  0  0  0
   42.0570   24.4860  -14.6360 C   0  0  0  0  0  0  0  0  0  0  0  0
   43.1940   23.8590  -14.1230 C   0  0  0  0  0  0  0  0  0  0  0  0
   44.3990   24.5680  -13.9580 C   0  0  0  0  0  0  0  0  0  0  0  0
   45.6140   23.8660  -13.4030 C   0  0  0  0  0  0  0  0  0  0  0  0
   45.4300   22.5150  -13.2770 F   0  0  0  0  0  0  0  0  0  0  0  0
   45.9670   24.2860  -12.1530 F   0  0  0  0  0  0  0  0  0  0  0  0
   46.7270   23.9930  -14.1830 F   0  0  0  0  0  0  0  0  0  0  0  0
   46.7650   26.1010  -14.9760 C   0  0  0  0  0  0  0  0  0  0  0  0
   48.0040   27.0200  -14.8500 C   0  0  0  0  0  0  0  0  0  0  0  0
   49.8219   28.3003  -12.3143 H   0  0  0  0  0  0  0  0  0  0  0  0
   50.4493   27.6525  -13.8678 H   0  0  0  0  0  0  0  0  0  0  0  0
   49.3203   29.0497  -13.8678 H   0  0  0  0  0  0  0  0  0  0  0  0
   48.7440   26.2840  -13.0760 H   0  0  0  0  0  0  0  0  0  0  0  0
   47.6252   27.7549  -11.5848 H   0  0  0  0  0  0  0  0  0  0  0  0
   47.0339   28.6839  -13.0319 H   0  0  0  0  0  0  0  0  0  0  0  0
   46.2994   25.7951  -12.3118 H   0  0  0  0  0  0  0  0  0  0  0  0
   45.2368   27.2389  -12.1634 H   0  0  0  0  0  0  0  0  0  0  0  0
   43.3304   27.6069  -15.0963 H   0  0  0  0  0  0  0  0  0  0  0  0
   38.9124   28.7651  -12.9298 H   0  0  0  0  0  0  0  0  0  0  0  0
   36.8195   30.0211  -13.4529 H   0  0  0  0  0  0  0  0  0  0  0  0
   35.8169   29.8854  -15.7354 H   0  0  0  0  0  0  0  0  0  0  0  0
   37.2460   28.7250  -18.4860 H   0  0  0  0  0  0  0  0  0  0  0  0
   41.3670   24.6870  -17.5070 H   0  0  0  0  0  0  0  0  0  0  0  0
   41.1241   23.9148  -14.7517 H   0  0  0  0  0  0  0  0  0  0  0  0
   43.1477   22.7960  -13.8438 H   0  0  0  0  0  0  0  0  0  0  0  0
   47.0247   25.0892  -14.6312 H   0  0  0  0  0  0  0  0  0  0  0  0
   46.4463   26.0648  -16.0282 H   0  0  0  0  0  0  0  0  0  0  0  0
   48.8300   26.5808  -15.4287 H   0  0  0  0  0  0  0  0  0  0  0  0
   47.7260   28.0125  -15.2342 H   0  0  0  0  0  0  0  0  0  0  0  0
  1  2  1  0
  2  3  1  0
  3  4  1  0
  4  5  1  0
  5  6  1  0
  6  7  2  0
  7  8  1  0
  8  9  1  0
  9 10  1  0
 10 11  1  0
 11 12  2  0
 12 13  1  0
 13 14  2  0
 14 15  1  0
 15 16  1  0
 15 17  2  0
 17 18  1  0
 18 19  2  0
 18 20  1  0
 20 21  1  0
  8 22  2  0
 22 23  1  0
 23 24  2  0
 24 25  1  0
 25 26  1  0
 25 27  1  0
 25 28  1  0
  5 29  1  0
 29 30  1  0
 30  2  1  0
 24  6  1  0
 20  9  2  0
 17 11  1  0
  1 31  1  0
  1 32  1  0
  1 33  1  0
  2 34  1  0
  3 35  1  0
  3 36  1  0
  4 37  1  0
  4 38  1  0
  7 39  1  0
 12 40  1  0
 13 41  1  0
 14 42  1  0
 16 43  1  0
 21 44  1  0
 22 45  1  0
 23 46  1  0
 29 47  1  0
 29 48  1  0
 30 49  1  0
 30 50  1  0
M  CHG  1   2   1
M  END
>  <meeko>  (4) 
{"is_sidechain": [false], "free_energy": 0.089, "intermolecular_energy": -1.52, "internal_energy": 2.047}

$$$$
cand_056_out
     RDKit          3D

 50 53  0  0  0  0  0  0  0  0999 V2000
   36.1000   27.0150  -19.6940 C   0  0  0  0  0  0  0  0  0  0  0  0
   37.1900   27.3260  -18.7710 N   0  0  0  0  0  0  0  0  0  0  0  0
   36.7900   28.4060  -17.8390 C   0  0  0  0  0  0  0  0  0  0  0  0
   37.8930   28.7320  -16.8040 C   0  0  0  0  0  0  0  0  0  0  0  0
   38.2510   27.5090  -16.0480 N   0  0  0  0  0  0  0  0  0  0  0  0
   39.1540   27.7420  -14.9960 C   0  0  0  0  0  0  0  0  0  0  0  0
   40.4110   27.1100  -14.9400 C   0  0  0  0  0  0  0  0  0  0  0  0
   41.3160   27.3500  -13.8960 C   0  0  0  0  0  0  0  0  0  0  0  0
   42.6260   26.6690  -13.8330 C   0  0  0  0  0  0  0  0  0  0  0  0
   43.6340   27.4810  -13.3270 O   0  0  0  0  0  0  0  0  0  0  0  0
   44.9020   26.9710  -13.2140 C   0  0  0  0  0  0  0  0  0  0  0  0
   45.8800   27.8160  -12.6870 C   0  0  0  0  0  0  0  0  0  0  0  0
   47.1930   27.3600  -12.5470 C   0  0  0  0  0  0  0  0  0  0  0  0
   47.5270   26.0600  -12.9330 C   0  0  0  0  0  0  0  0  0  0  0  0
   46.5490   25.2190  -13.4580 C   0  0  0  0  0  0  0  0  0  0  0  0
   46.9450   23.9590  -13.8170 O   0  0  0  0  0  0  0  0  0  0  0  0
   45.2360   25.6750  -13.5980 C   0  0  0  0  0  0  0  0  0  0  0  0
   44.1790   24.8250  -14.1460 C   0  0  0  0  0  0  0  0  0  0  0  0
   44.3950   23.6720  -14.5150 O   0  0  0  0  0  0  0  0  0  0  0  0
   42.8180   25.4020  -14.2450 C   0  0  0  0  0  0  0  0  0  0  0  0
   41.8290   24.5950  -14.7760 O   0  0  0  0  0  0  0  0  0  0  0  0
   40.9380   28.2280  -12.8760 C   0  0  0  0  0  0  0  0  0  0  0  0
   39.6940   28.8610  -12.9110 C   0  0  0  0  0  0  0  0  0  0  0  0
   38.7930   28.6280  -13.9660 C   0  0  0  0  0  0  0  0  0  0  0  0
   37.4550   29.3280  -13.9820 C   0  0  0  0  0  0  0  0  0  0  0  0
   37.4100   30.3560  -14.8850 F   0  0  0  0  0  0  0  0  0  0  0  0
   37.1210   29.8980  -12.7880 F   0  0  0  0  0  0  0  0  0  0  0  0
   36.4140   28.5160  -14.3280 F   0  0  0  0  0  0  0  0  0  0  0  0
   38.6800   26.4180  -16.9550 C   0  0  0  0  0  0  0  0  0  0  0  0
   37.5670   26.1240  -17.9900 C   0  0  0  0  0  0  0  0  0  0  0  0
   35.1969   26.7573  -19.1213 H   0  0  0  0  0  0  0  0  0  0  0  0
   35.8950   27.8905  -20.3276 H   0  0  0  0  0  0  0  0  0  0  0  0
   36.3879   26.1631  -20.3276 H   0  0  0  0  0  0  0  0  0  0  0  0
   37.9910   27.6340  -19.3230 H   0  0  0  0  0  0  0  0  0  0  0  0
   36.5737   29.3133  -18.4220 H   0  0  0  0  0  0  0  0  0  0  0  0
   35.9038   28.0604  -17.2865 H   0  0  0  0  0  0  0  0  0  0  0  0
   38.7833   29.1116  -17.3268 H   0  0  0  0  0  0  0  0  0  0  0  0
   37.5199   29.4945  -16.1045 H   0  0  0  0  0  0  0  0  0  0  0  0
   40.6913   26.4074  -15.7386 H   0  0  0  0  0  0  0  0  0  0  0  0
   45.6172   28.8398  -12.3823 H   0  0  0  0  0  0  0  0  0  0  0  0
   47.9645   28.0254  -12.1324 H   0  0  0  0  0  0  0  0  0  0  0  0
   48.5609   25.7010  -12.8225 H   0  0  0  0  0  0  0  0  0  0  0  0
   46.7790   23.2360  -13.2450 H   0  0  0  0  0  0  0  0  0  0  0  0
   41.0880   24.3570  -14.2540 H   0  0  0  0  0  0  0  0  0  0  0  0
   41.6257   28.4216  -12.0396 H   0  0  0  0  0  0  0  0  0  0  0  0
   39.4144   29.5519  -12.1020 H   0  0  0  0  0  0  0  0  0  0  0  0
   39.5969   26.7211  -17.4817 H   0  0  0  0  0  0  0  0  0  0  0  0
   38.8731   25.5108  -16.3637 H   0  0  0  0  0  0  0  0  0  0  0  0
   37.9257   25.3498  -18.6842 H   0  0  0  0  0  0  0  0  0  0  0  0
   36.6760   25.7893  -17.4385 H   0  0  0  0  0  0  0  0  0  0  0  0
  1  2  1  0
  2  3  1  0
  3  4  1  0
  4  5  1  0
  5  6  1  0
  6  7  2  0
  7  8  1  0
  8  9  1  0
  9 10  1  0
 10 11  1  0
 11 12  2  0
 12 13  1  0
 13 14  2  0
 14 15  1  0
 15 16  1  0
 15 17  2  0
 17 18  1  0
 18 19  2  0
 18 20  1  0
 20 21  1  0
  8 22  2  0
 22 23  1  0
 23 24  2  0
 24 25  1  0
 25 26  1  0
 25 27  1  0
 25 28  1  0
  5 29  1  0
 29 30  1  0
 30  2  1  0
 24  6  1  0
 20  9  2  0
 17 11  1  0
  1 31  1  0
  1 32  1  0
  1 33  1  0
  2 34  1  0
  3 35  1  0
  3 36  1  0
  4 37  1  0
  4 38  1  0
  7 39  1  0
 12 40  1  0
 13 41  1  0
 14 42  1  0
 16 43  1  0
 21 44  1  0
 22 45  1  0
 23 46  1  0
 29 47  1  0
 29 48  1  0
 30 49  1  0
 30 50  1  0
M  CHG  1   2   1
M  END
>  <meeko>  (5) 
{"is_sidechain": [false], "free_energy": 0.658, "intermolecular_energy": 0.012, "internal_energy": 1.217}

$$$$
