
     RDKit          3D

 31 33  0  0  0  0  0  0  0  0999 V2000
    1.7922   -1.9688    2.1809 O   0  0  0  0  0  0  0  0  0  0  0  0
    1.3563   -1.2450    1.2880 C   0  0  0  0  0  0  0  0  0  0  0  0
   -0.0871   -0.9207    1.2194 C   0  0  0  0  0  0  0  0  0  0  0  0
   -0.8989   -1.4542    2.2034 O   0  0  0  0  0  0  0  0  0  0  0  0
   -0.5194   -0.1217    0.2261 C   0  0  0  0  0  0  0  0  0  0  0  0
   -1.9332    0.2812    0.0654 C   0  0  0  0  0  0  0  0  0  0  0  0
   -2.9799   -0.6524    0.1291 C   0  0  0  0  0  0  0  0  0  0  0  0
   -4.3090   -0.2547   -0.0486 C   0  0  0  0  0  0  0  0  0  0  0  0
   -4.5948    1.0821   -0.2998 C   0  0  0  0  0  0  0  0  0  0  0  0
   -5.8750    1.5141   -0.4793 O   0  0  0  0  0  0  0  0  0  0  0  0
   -3.5767    2.0229   -0.3781 C   0  0  0  0  0  0  0  0  0  0  0  0
   -2.2498    1.6235   -0.1993 C   0  0  0  0  0  0  0  0  0  0  0  0
    0.3127    0.4307   -0.7412 O   0  0  0  0  0  0  0  0  0  0  0  0
    1.6529    0.1421   -0.7082 C   0  0  0  0  0  0  0  0  0  0  0  0
    2.4489    0.7075   -1.7037 C   0  0  0  0  0  0  0  0  0  0  0  0
    3.8171    0.4493   -1.7174 C   0  0  0  0  0  0  0  0  0  0  0  0
    4.5587    1.0219   -2.7079 O   0  0  0  0  0  0  0  0  0  0  0  0
    4.4045   -0.3647   -0.7524 C   0  0  0  0  0  0  0  0  0  0  0  0
    3.6042   -0.9265    0.2396 C   0  0  0  0  0  0  0  0  0  0  0  0
    4.2326   -1.7176    1.1630 O   0  0  0  0  0  0  0  0  0  0  0  0
    2.2287   -0.6733    0.2613 C   0  0  0  0  0  0  0  0  0  0  0  0
   -0.2974   -1.9564    2.7922 H   0  0  0  0  0  0  0  0  0  0  0  0
   -2.7688   -1.7027    0.3185 H   0  0  0  0  0  0  0  0  0  0  0  0
   -5.0966   -0.9989    0.0115 H   0  0  0  0  0  0  0  0  0  0  0  0
   -6.4736    0.7552   -0.3849 H   0  0  0  0  0  0  0  0  0  0  0  0
   -3.8124    3.0642   -0.5777 H   0  0  0  0  0  0  0  0  0  0  0  0
   -1.4644    2.3734   -0.2636 H   0  0  0  0  0  0  0  0  0  0  0  0
    2.0087    1.3450   -2.4657 H   0  0  0  0  0  0  0  0  0  0  0  0
    5.4884    0.7590   -2.5982 H   0  0  0  0  0  0  0  0  0  0  0  0
    5.4703   -0.5706   -0.7559 H   0  0  0  0  0  0  0  0  0  0  0  0
    3.5607   -2.0442    1.8023 H   0  0  0  0  0  0  0  0  0  0  0  0
  1  2  2  0
  2  3  1  0
  3  4  1  0
  3  5  2  0
  5  6  1  0
  6  7  2  0
  7  8  1  0
  8  9  2  0
  9 10  1  0
  9 11  1  0
 11 12  2  0
  5 13  1  0
 13 14  1  0
 14 15  2  0
 15 16  1  0
 16 17  1  0
 16 18  2  0
 18 19  1  0
 19 20  1  0
 19 21  2  0
 21  2  1  0
 12  6  1  0
 21 14  1  0
  4 22  1  0
  7 23  1  0
  8 24  1  0
 10 25  1  0
 11 26  1  0
 12 27  1  0
 15 28  1  0
 17 29  1  0
 18 30  1  0
 20 31  1  0
M  END
$$$$
