cand_006_out
     RDKit          3D

 47 50  0  0  0  0  0  0  0  0999 V2000
   43.7930   26.3310  -10.5600 C   0  0  0  0  0  0  0  0  0  0  0  0
   42.8500   26.5200  -11.7180 C   0  0  0  0  0  0  0  0  0  0  0  0
   41.5160   26.8730  -11.4760 C   0  0  0  0  0  0  0  0  0  0  0  0
   40.6250   27.0570  -12.5350 C   0  0  0  0  0  0  0  0  0  0  0  0
   41.0480   26.8980  -13.8600 C   0  0  0  0  0  0  0  0  0  0  0  0
   40.0830   27.0720  -14.9660 C   0  0  0  0  0  0  0  0  0  0  0  0
   39.0740   27.9800  -14.6660 O   0  0  0  0  0  0  0  0  0  0  0  0
   38.1110   28.2380  -15.6070 C   0  0  0  0  0  0  0  0  0  0  0  0
   37.1090   29.1450  -15.2560 C   0  0  0  0  0  0  0  0  0  0  0  0
   36.0980   29.4520  -16.1680 C   0  0  0  0  0  0  0  0  0  0  0  0
   36.0880   28.8550  -17.4300 C   0  0  0  0  0  0  0  0  0  0  0  0
   37.0890   27.9510  -17.7780 C   0  0  0  0  0  0  0  0  0  0  0  0
   37.0190   27.4030  -19.0290 O   0  0  0  0  0  0  0  0  0  0  0  0
   38.1000   27.6420  -16.8630 C   0  0  0  0  0  0  0  0  0  0  0  0
   39.1700   26.6980  -17.1880 C   0  0  0  0  0  0  0  0  0  0  0  0
   39.2340   26.1360  -18.2800 O   0  0  0  0  0  0  0  0  0  0  0  0
   40.1900   26.4330  -16.1460 C   0  0  0  0  0  0  0  0  0  0  0  0
   41.2030   25.5490  -16.4700 O   0  0  0  0  0  0  0  0  0  0  0  0
   42.3820   26.5330  -14.0960 C   0  0  0  0  0  0  0  0  0  0  0  0
   43.2950   26.3450  -13.0430 C   0  0  0  0  0  0  0  0  0  0  0  0
   44.6450   25.9900  -13.2720 N   0  0  0  0  0  0  0  0  0  0  0  0
   45.4420   27.1260  -13.7650 C   0  0  0  0  0  0  0  0  0  0  0  0
   46.9200   26.7340  -13.7680 C   0  0  0  0  0  0  0  0  0  0  0  0
   47.1520   25.4620  -14.5820 C   0  0  0  0  0  0  0  0  0  0  0  0
   46.2360   24.3340  -14.1060 C   0  0  0  0  0  0  0  0  0  0  0  0
   44.7730   24.7780  -14.0970 C   0  0  0  0  0  0  0  0  0  0  0  0
   43.2404   26.4417   -9.6153 H   0  0  0  0  0  0  0  0  0  0  0  0
   44.2373   25.3259  -10.6092 H   0  0  0  0  0  0  0  0  0  0  0  0
   44.5903   27.0872  -10.6092 H   0  0  0  0  0  0  0  0  0  0  0  0
   41.1671   27.0065  -10.4414 H   0  0  0  0  0  0  0  0  0  0  0  0
   39.5800   27.3297  -12.3261 H   0  0  0  0  0  0  0  0  0  0  0  0
   37.1164   29.6168  -14.2623 H   0  0  0  0  0  0  0  0  0  0  0  0
   35.3077   30.1656  -15.8919 H   0  0  0  0  0  0  0  0  0  0  0  0
   35.2911   29.0981  -18.1482 H   0  0  0  0  0  0  0  0  0  0  0  0
   36.4150   27.7460  -19.6570 H   0  0  0  0  0  0  0  0  0  0  0  0
   41.5860   25.5680  -17.3250 H   0  0  0  0  0  0  0  0  0  0  0  0
   42.7228   26.3901  -15.1321 H   0  0  0  0  0  0  0  0  0  0  0  0
   45.1263   27.3818  -14.7872 H   0  0  0  0  0  0  0  0  0  0  0  0
   45.2903   27.9976  -13.1113 H   0  0  0  0  0  0  0  0  0  0  0  0
   47.5078   27.5535  -14.2073 H   0  0  0  0  0  0  0  0  0  0  0  0
   47.2328   26.5457  -12.7304 H   0  0  0  0  0  0  0  0  0  0  0  0
   46.9455   25.6703  -15.6422 H   0  0  0  0  0  0  0  0  0  0  0  0
   48.1970   25.1456  -14.4487 H   0  0  0  0  0  0  0  0  0  0  0  0
   46.3458   23.4730  -14.7818 H   0  0  0  0  0  0  0  0  0  0  0  0
   46.5238   24.0603  -13.0802 H   0  0  0  0  0  0  0  0  0  0  0  0
   44.4473   24.9955  -15.1249 H   0  0  0  0  0  0  0  0  0  0  0  0
   44.1442   23.9771  -13.6808 H   0  0  0  0  0  0  0  0  0  0  0  0
  1  2  1  0
  2  3  2  0
  3  4  1  0
  4  5  2  0
  5  6  1  0
  6  7  1  0
  7  8  1  0
  8  9  2  0
  9 10  1  0
 10 11  2  0
 11 12  1  0
 12 13  1  0
 12 14  2  0
 14 15  1  0
 15 16  2  0
 15 17  1  0
 17 18  1  0
  5 19  1  0
 19 20  2  0
 20 21  1  0
 21 22  1  0
 22 23  1  0
 23 24  1  0
 24 25  1  0
 25 26  1  0
 20  2  1  0
 26 21  1  0
 17  6  2  0
 14  8  1  0
  1 27  1  0
  1 28  1  0
  1 29  1  0
  3 30  1  0
  4 31  1  0
  9 32  1  0
 10 33  1  0
 11 34  1  0
 13 35  1  0
 18 36  1  0
 19 37  1  0
 22 38  1  0
 22 39  1  0
 23 40  1  0
 23 41  1  0
 24 42  1  0
 24 43  1  0
 25 44  1  0
 25 45  1  0
 26 46  1  0
 26 47  1  0
M  END
>  <meeko>  (1) 
{"is_sidechain": [false], "free_energy": -5.491, "intermolecular_energy": -6.454, "internal_energy": -0.264}

$$$$
cand_006_out
     RDKit          3D

 47 50  0  0  0  0  0  0  0  0999 V2000
   47.0500   24.0170  -13.5840 C   0  0  0  0  0  0  0  0  0  0  0  0
   45.7170   24.6910  -13.7690 C   0  0  0  0  0  0  0  0  0  0  0  0
   44.5460   23.9220  -13.7830 C   0  0  0  0  0  0  0  0  0  0  0  0
   43.2990   24.5270  -13.9500 C   0  0  0  0  0  0  0  0  0  0  0  0
   43.1930   25.9140  -14.1000 C   0  0  0  0  0  0  0  0  0  0  0  0
   41.8660   26.5330  -14.3010 C   0  0  0  0  0  0  0  0  0  0  0  0
   41.3440   26.2950  -15.5680 O   0  0  0  0  0  0  0  0  0  0  0  0
   40.1150   26.8120  -15.8880 C   0  0  0  0  0  0  0  0  0  0  0  0
   39.6380   26.5610  -17.1750 C   0  0  0  0  0  0  0  0  0  0  0  0
   38.3930   27.0580  -17.5660 C   0  0  0  0  0  0  0  0  0  0  0  0
   37.6250   27.8050  -16.6700 C   0  0  0  0  0  0  0  0  0  0  0  0
   38.1030   28.0540  -15.3860 C   0  0  0  0  0  0  0  0  0  0  0  0
   37.3000   28.7910  -14.5600 O   0  0  0  0  0  0  0  0  0  0  0  0
   39.3510   27.5570  -14.9960 C   0  0  0  0  0  0  0  0  0  0  0  0
   39.8900   27.7960  -13.6570 C   0  0  0  0  0  0  0  0  0  0  0  0
   39.2710   28.4380  -12.8100 O   0  0  0  0  0  0  0  0  0  0  0  0
   41.2240   27.2330  -13.3460 C   0  0  0  0  0  0  0  0  0  0  0  0
   41.7180   27.4540  -12.0730 O   0  0  0  0  0  0  0  0  0  0  0  0
   44.3690   26.6790  -14.0970 C   0  0  0  0  0  0  0  0  0  0  0  0
   45.6350   26.0880  -13.9280 C   0  0  0  0  0  0  0  0  0  0  0  0
   46.8240   26.8520  -13.9100 N   0  0  0  0  0  0  0  0  0  0  0  0
   47.8120   26.3660  -14.8880 C   0  0  0  0  0  0  0  0  0  0  0  0
   48.9630   27.3690  -14.9750 C   0  0  0  0  0  0  0  0  0  0  0  0
   49.5800   27.6230  -13.6000 C   0  0  0  0  0  0  0  0  0  0  0  0
   48.5090   28.0290  -12.5880 C   0  0  0  0  0  0  0  0  0  0  0  0
   47.3680   27.0120  -12.5520 C   0  0  0  0  0  0  0  0  0  0  0  0
   47.2610   23.9103  -12.5097 H   0  0  0  0  0  0  0  0  0  0  0  0
   47.0263   23.0225  -14.0535 H   0  0  0  0  0  0  0  0  0  0  0  0
   47.8369   24.6256  -14.0535 H   0  0  0  0  0  0  0  0  0  0  0  0
   44.6098   22.8306  -13.6612 H   0  0  0  0  0  0  0  0  0  0  0  0
   42.3905   23.9069  -13.9638 H   0  0  0  0  0  0  0  0  0  0  0  0
   40.2421   25.9722  -17.8809 H   0  0  0  0  0  0  0  0  0  0  0  0
   38.0168   26.8610  -18.5807 H   0  0  0  0  0  0  0  0  0  0  0  0
   36.6441   28.1960  -16.9781 H   0  0  0  0  0  0  0  0  0  0  0  0
   36.9240   28.3980  -13.7990 H   0  0  0  0  0  0  0  0  0  0  0  0
   42.5910   27.1910  -11.8570 H   0  0  0  0  0  0  0  0  0  0  0  0
   44.2998   27.7687  -14.2302 H   0  0  0  0  0  0  0  0  0  0  0  0
   48.1989   25.3879  -14.5661 H   0  0  0  0  0  0  0  0  0  0  0  0
   47.3367   26.2600  -15.8743 H   0  0  0  0  0  0  0  0  0  0  0  0
   49.7368   26.9698  -15.6473 H   0  0  0  0  0  0  0  0  0  0  0  0
   48.5676   28.3204  -15.3604 H   0  0  0  0  0  0  0  0  0  0  0  0
   50.0745   26.7042  -13.2519 H   0  0  0  0  0  0  0  0  0  0  0  0
   50.3089   28.4421  -13.6878 H   0  0  0  0  0  0  0  0  0  0  0  0
   48.9650   28.0921  -11.5889 H   0  0  0  0  0  0  0  0  0  0  0  0
   48.0973   29.0037  -12.8889 H   0  0  0  0  0  0  0  0  0  0  0  0
   47.7476   26.0448  -12.1907 H   0  0  0  0  0  0  0  0  0  0  0  0
   46.5768   27.3658  -11.8746 H   0  0  0  0  0  0  0  0  0  0  0  0
  1  2  1  0
  2  3  2  0
  3  4  1  0
  4  5  2  0
  5  6  1  0
  6  7  1  0
  7  8  1  0
  8  9  2  0
  9 10  1  0
 10 11  2  0
 11 12  1  0
 12 13  1  0
 12 14  2  0
 14 15  1  0
 15 16  2  0
 15 17  1  0
 17 18  1  0
  5 19  1  0
 19 20  2  0
 20 21  1  0
 21 22  1  0
 22 23  1  0
 23 24  1  0
 24 25  1  0
 25 26  1  0
 20  2  1  0
 26 21  1  0
 17  6  2  0
 14  8  1  0
  1 27  1  0
  1 28  1  0
  1 29  1  0
  3 30  1  0
  4 31  1  0
  9 32  1  0
 10 33  1  0
 11 34  1  0
 13 35  1  0
 18 36  1  0
 19 37  1  0
 22 38  1  0
 22 39  1  0
 23 40  1  0
 23 41  1  0
 24 42  1  0
 24 43  1  0
 25 44  1  0
 25 45  1  0
 26 46  1  0
 26 47  1  0
M  END
>  <meeko>  (2) 
{"is_sidechain": [false], "free_energy": -5.088, "intermolecular_energy": -6.648, "internal_energy": 0.404}

$$$$
cand_006_out
     RDKit          3D

 47 50  0  0  0  0  0  0  0  0999 V2000
   44.3430   25.8700  -10.9440 C   0  0  0  0  0  0  0  0  0  0  0  0
   43.2110   26.3160  -11.8300 C   0  0  0  0  0  0  0  0  0  0  0  0
   41.9760   26.6560  -11.2620 C   0  0  0  0  0  0  0  0  0  0  0  0
   40.9140   27.0740  -12.0640 C   0  0  0  0  0  0  0  0  0  0  0  0
   41.0620   27.1700  -13.4530 C   0  0  0  0  0  0  0  0  0  0  0  0
   39.9170   27.5910  -14.2880 C   0  0  0  0  0  0  0  0  0  0  0  0
   39.8450   26.9020  -15.4940 O   0  0  0  0  0  0  0  0  0  0  0  0
   38.8280   27.1940  -16.3650 C   0  0  0  0  0  0  0  0  0  0  0  0
   38.8040   26.4890  -17.5700 C   0  0  0  0  0  0  0  0  0  0  0  0
   37.7950   26.7380  -18.5020 C   0  0  0  0  0  0  0  0  0  0  0  0
   36.8100   27.6890  -18.2300 C   0  0  0  0  0  0  0  0  0  0  0  0
   36.8360   28.3910  -17.0280 C   0  0  0  0  0  0  0  0  0  0  0  0
   35.8410   29.3080  -16.8260 O   0  0  0  0  0  0  0  0  0  0  0  0
   37.8480   28.1430  -16.0960 C   0  0  0  0  0  0  0  0  0  0  0  0
   37.9120   28.8590  -14.8200 C   0  0  0  0  0  0  0  0  0  0  0  0
   37.0780   29.7050  -14.5050 O   0  0  0  0  0  0  0  0  0  0  0  0
   39.0290   28.5270  -13.9050 C   0  0  0  0  0  0  0  0  0  0  0  0
   39.0710   29.2000  -12.6980 O   0  0  0  0  0  0  0  0  0  0  0  0
   42.2960   26.8180  -14.0190 C   0  0  0  0  0  0  0  0  0  0  0  0
   43.3800   26.3950  -13.2260 C   0  0  0  0  0  0  0  0  0  0  0  0
   44.6310   26.0510  -13.7870 N   0  0  0  0  0  0  0  0  0  0  0  0
   45.0760   24.7100  -13.3730 C   0  0  0  0  0  0  0  0  0  0  0  0
   46.3070   24.3180  -14.1920 C   0  0  0  0  0  0  0  0  0  0  0  0
   47.4130   25.3650  -14.0630 C   0  0  0  0  0  0  0  0  0  0  0  0
   46.8870   26.7590  -14.4060 C   0  0  0  0  0  0  0  0  0  0  0  0
   45.6450   27.0990  -13.5820 C   0  0  0  0  0  0  0  0  0  0  0  0
   44.0508   25.9851   -9.8898 H   0  0  0  0  0  0  0  0  0  0  0  0
   44.5735   24.8138  -11.1473 H   0  0  0  0  0  0  0  0  0  0  0  0
   45.2320   26.4851  -11.1473 H   0  0  0  0  0  0  0  0  0  0  0  0
   41.8425   26.5926  -10.1720 H   0  0  0  0  0  0  0  0  0  0  0  0
   39.9501   27.3309  -11.6003 H   0  0  0  0  0  0  0  0  0  0  0  0
   39.5790   25.7385  -17.7846 H   0  0  0  0  0  0  0  0  0  0  0  0
   37.7761   26.1840  -19.4521 H   0  0  0  0  0  0  0  0  0  0  0  0
   36.0144   27.8835  -18.9643 H   0  0  0  0  0  0  0  0  0  0  0  0
   35.9160   30.1680  -17.1880 H   0  0  0  0  0  0  0  0  0  0  0  0
   39.5720   29.9880  -12.6180 H   0  0  0  0  0  0  0  0  0  0  0  0
   42.4203   26.8738  -15.1105 H   0  0  0  0  0  0  0  0  0  0  0  0
   45.3329   24.7207  -12.3035 H   0  0  0  0  0  0  0  0  0  0  0  0
   44.2693   23.9820  -13.5436 H   0  0  0  0  0  0  0  0  0  0  0  0
   46.6851   23.3503  -13.8307 H   0  0  0  0  0  0  0  0  0  0  0  0
   46.0140   24.2493  -15.2500 H   0  0  0  0  0  0  0  0  0  0  0  0
   47.7890   25.3662  -13.0293 H   0  0  0  0  0  0  0  0  0  0  0  0
   48.2208   25.1114  -14.7653 H   0  0  0  0  0  0  0  0  0  0  0  0
   47.6716   27.5006  -14.1952 H   0  0  0  0  0  0  0  0  0  0  0  0
   46.6138   26.7760  -15.4714 H   0  0  0  0  0  0  0  0  0  0  0  0
   45.9123   27.1499  -12.5162 H   0  0  0  0  0  0  0  0  0  0  0  0
   45.2430   28.0721  -13.9006 H   0  0  0  0  0  0  0  0  0  0  0  0
  1  2  1  0
  2  3  2  0
  3  4  1  0
  4  5  2  0
  5  6  1  0
  6  7  1  0
  7  8  1  0
  8  9  2  0
  9 10  1  0
 10 11  2  0
 11 12  1  0
 12 13  1  0
 12 14  2  0
 14 15  1  0
 15 16  2  0
 15 17  1  0
 17 18  1  0
  5 19  1  0
 19 20  2  0
 20 21  1  0
 21 22  1  0
 22 23  1  0
 23 24  1  0
 24 25  1  0
 25 26  1  0
 20  2  1  0
 26 21  1  0
 17  6  2  0
 14  8  1  0
  1 27  1  0
  1 28  1  0
  1 29  1  0
  3 30  1  0
  4 31  1  0
  9 32  1  0
 10 33  1  0
 11 34  1  0
 13 35  1  0
 18 36  1  0
 19 37  1  0
 22 38  1  0
 22 39  1  0
 23 40  1  0
 23 41  1  0
 24 42  1  0
 24 43  1  0
 25 44  1  0
 25 45  1  0
 26 46  1  0
 26 47  1  0
M  END
>  <meeko>  (3) 
{"is_sidechain": [false], "free_energy": -5.022, "intermolecular_energy": -6.983, "internal_energy": 0.817}

$$$$
cand_006_out
     RDKit          3D

 47 50  0  0  0  0  0  0  0  0999 V2000
   41.7000   27.1990  -11.0350 C   0  0  0  0  0  0  0  0  0  0  0  0
   40.8870   27.2450  -12.3000 C   0  0  0  0  0  0  0  0  0  0  0  0
   39.6010   27.8020  -12.2800 C   0  0  0  0  0  0  0  0  0  0  0  0
   38.8310   27.8580  -13.4430 C   0  0  0  0  0  0  0  0  0  0  0  0
   39.3300   27.3650  -14.6540 C   0  0  0  0  0  0  0  0  0  0  0  0
   38.4900   27.4110  -15.8700 C   0  0  0  0  0  0  0  0  0  0  0  0
   37.5780   28.4610  -15.8570 O   0  0  0  0  0  0  0  0  0  0  0  0
   36.7350   28.6210  -16.9270 C   0  0  0  0  0  0  0  0  0  0  0  0
   35.8270   29.6790  -16.8640 C   0  0  0  0  0  0  0  0  0  0  0  0
   34.9400   29.8990  -17.9200 C   0  0  0  0  0  0  0  0  0  0  0  0
   34.9630   29.0620  -19.0380 C   0  0  0  0  0  0  0  0  0  0  0  0
   35.8700   28.0080  -19.0990 C   0  0  0  0  0  0  0  0  0  0  0  0
   35.8380   27.2290  -20.2220 O   0  0  0  0  0  0  0  0  0  0  0  0
   36.7560   27.7870  -18.0400 C   0  0  0  0  0  0  0  0  0  0  0  0
   37.7250   26.6910  -18.0630 C   0  0  0  0  0  0  0  0  0  0  0  0
   37.8110   25.9170  -19.0140 O   0  0  0  0  0  0  0  0  0  0  0  0
   38.6150   26.5390  -16.8870 C   0  0  0  0  0  0  0  0  0  0  0  0
   39.5350   25.5070  -16.9260 O   0  0  0  0  0  0  0  0  0  0  0  0
   40.6130   26.7990  -14.6670 C   0  0  0  0  0  0  0  0  0  0  0  0
   41.4060   26.7350  -13.5060 C   0  0  0  0  0  0  0  0  0  0  0  0
   42.7060   26.1780  -13.5130 N   0  0  0  0  0  0  0  0  0  0  0  0
   43.7480   27.1960  -13.3010 C   0  0  0  0  0  0  0  0  0  0  0  0
   45.0910   26.4980  -13.0900 C   0  0  0  0  0  0  0  0  0  0  0  0
   45.4180   25.5640  -14.2550 C   0  0  0  0  0  0  0  0  0  0  0  0
   44.2700   24.5870  -14.5090 C   0  0  0  0  0  0  0  0  0  0  0  0
   42.9440   25.3270  -14.6890 C   0  0  0  0  0  0  0  0  0  0  0  0
   41.0275   27.2371  -10.1653 H   0  0  0  0  0  0  0  0  0  0  0  0
   42.2827   26.2664  -11.0074 H   0  0  0  0  0  0  0  0  0  0  0  0
   42.3842   28.0599  -11.0074 H   0  0  0  0  0  0  0  0  0  0  0  0
   39.1943   28.1991  -11.3382 H   0  0  0  0  0  0  0  0  0  0  0  0
   37.8218   28.2941  -13.4072 H   0  0  0  0  0  0  0  0  0  0  0  0
   35.8100   30.3386  -15.9839 H   0  0  0  0  0  0  0  0  0  0  0  0
   34.2230   30.7318  -17.8713 H   0  0  0  0  0  0  0  0  0  0  0  0
   34.2646   29.2358  -19.8699 H   0  0  0  0  0  0  0  0  0  0  0  0
   36.4210   26.5010  -20.3040 H   0  0  0  0  0  0  0  0  0  0  0  0
   40.4500   25.6940  -16.8610 H   0  0  0  0  0  0  0  0  0  0  0  0
   41.0101   26.3943  -15.6096 H   0  0  0  0  0  0  0  0  0  0  0  0
   43.8077   27.8515  -14.1823 H   0  0  0  0  0  0  0  0  0  0  0  0
   43.5011   27.8014  -12.4164 H   0  0  0  0  0  0  0  0  0  0  0  0
   45.8814   27.2585  -13.0071 H   0  0  0  0  0  0  0  0  0  0  0  0
   45.0311   25.8987  -12.1695 H   0  0  0  0  0  0  0  0  0  0  0  0
   45.5875   26.1641  -15.1612 H   0  0  0  0  0  0  0  0  0  0  0  0
   46.3203   24.9881  -14.0015 H   0  0  0  0  0  0  0  0  0  0  0  0
   44.4852   24.0095  -15.4201 H   0  0  0  0  0  0  0  0  0  0  0  0
   44.1813   23.9198  -13.6389 H   0  0  0  0  0  0  0  0  0  0  0  0
   42.9904   25.9520  -15.5930 H   0  0  0  0  0  0  0  0  0  0  0  0
   42.1246   24.6005  -14.7935 H   0  0  0  0  0  0  0  0  0  0  0  0
  1  2  1  0
  2  3  2  0
  3  4  1  0
  4  5  2  0
  5  6  1  0
  6  7  1  0
  7  8  1  0
  8  9  2  0
  9 10  1  0
 10 11  2  0
 11 12  1  0
 12 13  1  0
 12 14  2  0
 14 15  1  0
 15 16  2  0
 15 17  1  0
 17 18  1  0
  5 19  1  0
 19 20  2  0
 20 21  1  0
 21 22  1  0
 22 23  1  0
 23 24  1  0
 24 25  1  0
 25 26  1  0
 20  2  1  0
 26 21  1  0
 17  6  2  0
 14  8  1  0
  1 27  1  0
  1 28  1  0
  1 29  1  0
  3 30  1  0
  4 31  1  0
  9 32  1  0
 10 33  1  0
 11 34  1  0
 13 35  1  0
 18 36  1  0
 19 37  1  0
 22 38  1  0
 22 39  1  0
 23 40  1  0
 23 41  1  0
 24 42  1  0
 24 43  1  0
 25 44  1  0
 25 45  1  0
 26 46  1  0
 26 47  1  0
M  END
>  <meeko>  (4) 
{"is_sidechain": [false], "free_energy": -4.871, "intermolecular_energy": -6.194, "internal_energy": 0.204}

$$$$
cand_006_out
     RDKit          3D

 47 50  0  0  0  0  0  0  0  0999 V2000
   47.1300   24.0520  -13.3160 C   0  0  0  0  0  0  0  0  0  0  0  0
   45.8080   24.6470  -13.7200 C   0  0  0  0  0  0  0  0  0  0  0  0
   44.6660   23.8360  -13.7640 C   0  0  0  0  0  0  0  0  0  0  0  0
   43.4290   24.3680  -14.1320 C   0  0  0  0  0  0  0  0  0  0  0  0
   43.3030   25.7240  -14.4580 C   0  0  0  0  0  0  0  0  0  0  0  0
   41.9900   26.2620  -14.8700 C   0  0  0  0  0  0  0  0  0  0  0  0
   41.3790   27.0170  -13.8740 O   0  0  0  0  0  0  0  0  0  0  0  0
   40.1530   27.5780  -14.1240 C   0  0  0  0  0  0  0  0  0  0  0  0
   39.5710   28.3140  -13.0900 C   0  0  0  0  0  0  0  0  0  0  0  0
   38.3230   28.9130  -13.2790 C   0  0  0  0  0  0  0  0  0  0  0  0
   37.6600   28.7770  -14.5000 C   0  0  0  0  0  0  0  0  0  0  0  0
   38.2430   28.0430  -15.5300 C   0  0  0  0  0  0  0  0  0  0  0  0
   37.5380   27.9510  -16.6980 O   0  0  0  0  0  0  0  0  0  0  0  0
   39.4910   27.4420  -15.3390 C   0  0  0  0  0  0  0  0  0  0  0  0
   40.1390   26.6620  -16.3950 C   0  0  0  0  0  0  0  0  0  0  0  0
   39.6210   26.5030  -17.4990 O   0  0  0  0  0  0  0  0  0  0  0  0
   41.4580   26.0600  -16.0900 C   0  0  0  0  0  0  0  0  0  0  0  0
   42.0660   25.3360  -17.0990 O   0  0  0  0  0  0  0  0  0  0  0  0
   44.4510   26.5290  -14.4230 C   0  0  0  0  0  0  0  0  0  0  0  0
   45.7060   26.0120  -14.0520 C   0  0  0  0  0  0  0  0  0  0  0  0
   46.8660   26.8190  -14.0010 N   0  0  0  0  0  0  0  0  0  0  0  0
   47.9030   26.3620  -14.9410 C   0  0  0  0  0  0  0  0  0  0  0  0
   49.0190   27.4060  -14.9980 C   0  0  0  0  0  0  0  0  0  0  0  0
   49.5800   27.6920  -13.6050 C   0  0  0  0  0  0  0  0  0  0  0  0
   48.4610   28.0660  -12.6330 C   0  0  0  0  0  0  0  0  0  0  0  0
   47.3580   27.0080  -12.6270 C   0  0  0  0  0  0  0  0  0  0  0  0
   47.1982   24.0213  -12.2185 H   0  0  0  0  0  0  0  0  0  0  0  0
   47.2104   23.0309  -13.7171 H   0  0  0  0  0  0  0  0  0  0  0  0
   47.9476   24.6689  -13.7171 H   0  0  0  0  0  0  0  0  0  0  0  0
   44.7451   22.7696  -13.5060 H   0  0  0  0  0  0  0  0  0  0  0  0
   42.5442   23.7154  -14.1663 H   0  0  0  0  0  0  0  0  0  0  0  0
   40.0941   28.4220  -12.1284 H   0  0  0  0  0  0  0  0  0  0  0  0
   37.8625   29.4922  -12.4651 H   0  0  0  0  0  0  0  0  0  0  0  0
   36.6777   29.2493  -14.6485 H   0  0  0  0  0  0  0  0  0  0  0  0
   37.4360   27.1210  -17.1190 H   0  0  0  0  0  0  0  0  0  0  0  0
   42.1960   25.7260  -17.9410 H   0  0  0  0  0  0  0  0  0  0  0  0
   44.3681   27.5922  -14.6926 H   0  0  0  0  0  0  0  0  0  0  0  0
   48.3141   25.4012  -14.5978 H   0  0  0  0  0  0  0  0  0  0  0  0
   47.4655   26.2309  -15.9417 H   0  0  0  0  0  0  0  0  0  0  0  0
   49.8289   27.0308  -15.6409 H   0  0  0  0  0  0  0  0  0  0  0  0
   48.6023   28.3395  -15.4042 H   0  0  0  0  0  0  0  0  0  0  0  0
   50.0953   26.7942  -13.2329 H   0  0  0  0  0  0  0  0  0  0  0  0
   50.2817   28.5362  -13.6750 H   0  0  0  0  0  0  0  0  0  0  0  0
   48.8801   28.1533  -11.6197 H   0  0  0  0  0  0  0  0  0  0  0  0
   48.0244   29.0227  -12.9557 H   0  0  0  0  0  0  0  0  0  0  0  0
   47.7607   26.0580  -12.2458 H   0  0  0  0  0  0  0  0  0  0  0  0
   46.5321   27.3367  -11.9791 H   0  0  0  0  0  0  0  0  0  0  0  0
  1  2  1  0
  2  3  2  0
  3  4  1  0
  4  5  2  0
  5  6  1  0
  6  7  1  0
  7  8  1  0
  8  9  2  0
  9 10  1  0
 10 11  2  0
 11 12  1  0
 12 13  1  0
 12 14  2  0
 14 15  1  0
 15 16  2  0
 15 17  1  0
 17 18  1  0
  5 19  1  0
 19 20  2  0
 20 21  1  0
 21 22  1  0
 22 23  1  0
 23 24  1  0
 24 25  1  0
 25 26  1  0
 20  2  1  0
 26 21  1  0
 17  6  2  0
 14  8  1  0
  1 27  1  0
  1 28  1  0
  1 29  1  0
  3 30  1  0
  4 31  1  0
  9 32  1  0
 10 33  1  0
 11 34  1  0
 13 35  1  0
 18 36  1  0
 19 37  1  0
 22 38  1  0
 22 39  1  0
 23 40  1  0
 23 41  1  0
 24 42  1  0
 24 43  1  0
 25 44  1  0
 25 45  1  0
 26 46  1  0
 26 47  1  0
M  END
>  <meeko>  (5) 
{"is_sidechain": [false], "free_energy": -3.165, "intermolecular_energy": -4.347, "internal_energy": 0.363}

$$$$
