cand_052_out
     RDKit          3D

 44 46  0  0  0  0  0  0  0  0999 V2000
   48.1970   26.5450  -14.9690 C   0  0  0  0  0  0  0  0  0  0  0  0
   47.3440   26.1880  -13.7620 C   0  0  0  0  0  0  0  0  0  0  0  0
   46.6740   24.8240  -13.9330 C   0  0  0  0  0  0  0  0  0  0  0  0
   45.4600   24.6830  -13.0100 C   0  0  0  0  0  0  0  0  0  0  0  0
   44.2020   25.2300  -13.6500 C   0  0  0  0  0  0  0  0  0  0  0  0
   43.5550   24.4510  -14.6220 C   0  0  0  0  0  0  0  0  0  0  0  0
   42.3950   24.9050  -15.2540 C   0  0  0  0  0  0  0  0  0  0  0  0
   41.8470   26.1500  -14.9310 C   0  0  0  0  0  0  0  0  0  0  0  0
   40.6350   26.6650  -15.6010 C   0  0  0  0  0  0  0  0  0  0  0  0
   39.8600   27.4690  -14.7710 O   0  0  0  0  0  0  0  0  0  0  0  0
   38.7050   28.0150  -15.2670 C   0  0  0  0  0  0  0  0  0  0  0  0
   37.9670   28.8250  -14.4040 C   0  0  0  0  0  0  0  0  0  0  0  0
   36.7770   29.4120  -14.8460 C   0  0  0  0  0  0  0  0  0  0  0  0
   36.3280   29.1870  -16.1480 C   0  0  0  0  0  0  0  0  0  0  0  0
   37.0670   28.3770  -17.0070 C   0  0  0  0  0  0  0  0  0  0  0  0
   36.5680   28.1980  -18.2680 O   0  0  0  0  0  0  0  0  0  0  0  0
   38.2560   27.7910  -16.5650 C   0  0  0  0  0  0  0  0  0  0  0  0
   39.0620   26.9340  -17.4350 C   0  0  0  0  0  0  0  0  0  0  0  0
   38.7300   26.6830  -18.5920 O   0  0  0  0  0  0  0  0  0  0  0  0
   40.3110   26.3680  -16.8720 C   0  0  0  0  0  0  0  0  0  0  0  0
   41.0580   25.5490  -17.6990 O   0  0  0  0  0  0  0  0  0  0  0  0
   42.5030   26.9350  -13.9700 C   0  0  0  0  0  0  0  0  0  0  0  0
   43.6760   26.4960  -13.3280 C   0  0  0  0  0  0  0  0  0  0  0  0
   44.3150   27.3850  -12.2950 C   0  0  0  0  0  0  0  0  0  0  0  0
   49.1621   26.9489  -14.6294 H   0  0  0  0  0  0  0  0  0  0  0  0
   48.3697   25.6437  -15.5754 H   0  0  0  0  0  0  0  0  0  0  0  0
   47.6762   27.3007  -15.5754 H   0  0  0  0  0  0  0  0  0  0  0  0
   47.9835   26.1625  -12.8673 H   0  0  0  0  0  0  0  0  0  0  0  0
   46.5564   26.9489  -13.6588 H   0  0  0  0  0  0  0  0  0  0  0  0
   46.3455   24.7141  -14.9770 H   0  0  0  0  0  0  0  0  0  0  0  0
   47.4029   24.0429  -13.6712 H   0  0  0  0  0  0  0  0  0  0  0  0
   45.3088   23.6179  -12.7805 H   0  0  0  0  0  0  0  0  0  0  0  0
   45.6571   25.2601  -12.0945 H   0  0  0  0  0  0  0  0  0  0  0  0
   43.9680   23.4674  -14.8903 H   0  0  0  0  0  0  0  0  0  0  0  0
   41.9076   24.2764  -16.0138 H   0  0  0  0  0  0  0  0  0  0  0  0
   38.3204   29.0018  -13.3774 H   0  0  0  0  0  0  0  0  0  0  0  0
   36.1944   30.0516  -14.1667 H   0  0  0  0  0  0  0  0  0  0  0  0
   35.3919   29.6486  -16.4954 H   0  0  0  0  0  0  0  0  0  0  0  0
   36.5220   28.9210  -18.8610 H   0  0  0  0  0  0  0  0  0  0  0  0
   40.9550   24.6180  -17.6530 H   0  0  0  0  0  0  0  0  0  0  0  0
   42.0888   27.9207  -13.7115 H   0  0  0  0  0  0  0  0  0  0  0  0
   44.0553   27.0236  -11.2890 H   0  0  0  0  0  0  0  0  0  0  0  0
   45.4077   27.3663  -12.4205 H   0  0  0  0  0  0  0  0  0  0  0  0
   43.9491   28.4147  -12.4205 H   0  0  0  0  0  0  0  0  0  0  0  0
  1  2  1  0
  2  3  1  0
  3  4  1  0
  4  5  1  0
  5  6  2  0
  6  7  1  0
  7  8  2  0
  8  9  1  0
  9 10  1  0
 10 11  1  0
 11 12  2  0
 12 13  1  0
 13 14  2  0
 14 15  1  0
 15 16  1  0
 15 17  2  0
 17 18  1  0
 18 19  2  0
 18 20  1  0
 20 21  1  0
  8 22  1  0
 22 23  2  0
 23 24  1  0
 23  5  1  0
 20  9  2  0
 17 11  1  0
  1 25  1  0
  1 26  1  0
  1 27  1  0
  2 28  1  0
  2 29  1  0
  3 30  1  0
  3 31  1  0
  4 32  1  0
  4 33  1  0
  6 34  1  0
  7 35  1  0
 12 36  1  0
 13 37  1  0
 14 38  1  0
 16 39  1  0
 21 40  1  0
 22 41  1  0
 24 42  1  0
 24 43  1  0
 24 44  1  0
M  END
>  <meeko>  (1) 
{"is_sidechain": [false], "free_energy": -8.695, "intermolecular_energy": -11.236, "internal_energy": -0.301}

$$$$
cand_052_out
     RDKit          3D

 44 46  0  0  0  0  0  0  0  0999 V2000
   48.6640   26.6490  -14.9290 C   0  0  0  0  0  0  0  0  0  0  0  0
   47.3600   26.4180  -14.1840 C   0  0  0  0  0  0  0  0  0  0  0  0
   46.8960   24.9660  -14.3030 C   0  0  0  0  0  0  0  0  0  0  0  0
   45.8260   24.6380  -13.2570 C   0  0  0  0  0  0  0  0  0  0  0  0
   44.4990   25.2840  -13.5910 C   0  0  0  0  0  0  0  0  0  0  0  0
   43.6890   24.6800  -14.5660 C   0  0  0  0  0  0  0  0  0  0  0  0
   42.4580   25.2330  -14.9240 C   0  0  0  0  0  0  0  0  0  0  0  0
   41.9980   26.4040  -14.3140 C   0  0  0  0  0  0  0  0  0  0  0  0
   40.7100   27.0240  -14.6900 C   0  0  0  0  0  0  0  0  0  0  0  0
   40.3050   26.6890  -15.9770 O   0  0  0  0  0  0  0  0  0  0  0  0
   39.1240   27.1950  -16.4550 C   0  0  0  0  0  0  0  0  0  0  0  0
   38.7510   26.8220  -17.7460 C   0  0  0  0  0  0  0  0  0  0  0  0
   37.5590   27.3040  -18.2940 C   0  0  0  0  0  0  0  0  0  0  0  0
   36.7440   28.1600  -17.5520 C   0  0  0  0  0  0  0  0  0  0  0  0
   37.1200   28.5320  -16.2630 C   0  0  0  0  0  0  0  0  0  0  0  0
   36.2750   29.3730  -15.5920 O   0  0  0  0  0  0  0  0  0  0  0  0
   38.3110   28.0480  -15.7160 C   0  0  0  0  0  0  0  0  0  0  0  0
   38.7420   28.4140  -14.3650 C   0  0  0  0  0  0  0  0  0  0  0  0
   38.0820   29.1680  -13.6520 O   0  0  0  0  0  0  0  0  0  0  0  0
   40.0170   27.8400  -13.8750 C   0  0  0  0  0  0  0  0  0  0  0  0
   40.4220   28.2040  -12.6030 O   0  0  0  0  0  0  0  0  0  0  0  0
   42.8140   27.0150  -13.3490 C   0  0  0  0  0  0  0  0  0  0  0  0
   44.0600   26.4760  -12.9820 C   0  0  0  0  0  0  0  0  0  0  0  0
   44.8730   27.1770  -11.9280 C   0  0  0  0  0  0  0  0  0  0  0  0
   49.4794   26.7934  -14.2049 H   0  0  0  0  0  0  0  0  0  0  0  0
   48.8850   25.7760  -15.5607 H   0  0  0  0  0  0  0  0  0  0  0  0
   48.5717   27.5448  -15.5607 H   0  0  0  0  0  0  0  0  0  0  0  0
   47.5079   26.6600  -13.1212 H   0  0  0  0  0  0  0  0  0  0  0  0
   46.5891   27.0641  -14.6293 H   0  0  0  0  0  0  0  0  0  0  0  0
   46.4772   24.8045  -15.3073 H   0  0  0  0  0  0  0  0  0  0  0  0
   47.7617   24.3090  -14.1330 H   0  0  0  0  0  0  0  0  0  0  0  0
   45.6908   23.5471  -13.2155 H   0  0  0  0  0  0  0  0  0  0  0  0
   46.1637   25.0310  -12.2867 H   0  0  0  0  0  0  0  0  0  0  0  0
   44.0299   23.7560  -15.0558 H   0  0  0  0  0  0  0  0  0  0  0  0
   41.8439   24.7425  -15.6936 H   0  0  0  0  0  0  0  0  0  0  0  0
   39.3942   26.1492  -18.3323 H   0  0  0  0  0  0  0  0  0  0  0  0
   37.2629   27.0083  -19.3113 H   0  0  0  0  0  0  0  0  0  0  0  0
   35.8066   28.5403  -17.9840 H   0  0  0  0  0  0  0  0  0  0  0  0
   35.4060   29.0950  -15.3800 H   0  0  0  0  0  0  0  0  0  0  0  0
   41.0830   28.8580  -12.4920 H   0  0  0  0  0  0  0  0  0  0  0  0
   42.4692   27.9414  -12.8663 H   0  0  0  0  0  0  0  0  0  0  0  0
   44.5209   26.8734  -10.9311 H   0  0  0  0  0  0  0  0  0  0  0  0
   45.9328   26.9049  -12.0411 H   0  0  0  0  0  0  0  0  0  0  0  0
   44.7598   28.2653  -12.0411 H   0  0  0  0  0  0  0  0  0  0  0  0
  1  2  1  0
  2  3  1  0
  3  4  1  0
  4  5  1  0
  5  6  2  0
  6  7  1  0
  7  8  2  0
  8  9  1  0
  9 10  1  0
 10 11  1  0
 11 12  2  0
 12 13  1  0
 13 14  2  0
 14 15  1  0
 15 16  1  0
 15 17  2  0
 17 18  1  0
 18 19  2  0
 18 20  1  0
 20 21  1  0
  8 22  1  0
 22 23  2  0
 23 24  1  0
 23  5  1  0
 20  9  2  0
 17 11  1  0
  1 25  1  0
  1 26  1  0
  1 27  1  0
  2 28  1  0
  2 29  1  0
  3 30  1  0
  3 31  1  0
  4 32  1  0
  4 33  1  0
  6 34  1  0
  7 35  1  0
 12 36  1  0
 13 37  1  0
 14 38  1  0
 16 39  1  0
 21 40  1  0
 22 41  1  0
 24 42  1  0
 24 43  1  0
 24 44  1  0
M  END
>  <meeko>  (2) 
{"is_sidechain": [false], "free_energy": -8.417, "intermolecular_energy": -11.132, "internal_energy": -0.046}

$$$$
cand_052_out
     RDKit          3D

 44 46  0  0  0  0  0  0  0  0999 V2000
   47.7180   26.1930  -14.6130 C   0  0  0  0  0  0  0  0  0  0  0  0
   46.9580   25.3900  -13.5700 C   0  0  0  0  0  0  0  0  0  0  0  0
   46.1240   26.2950  -12.6640 C   0  0  0  0  0  0  0  0  0  0  0  0
   44.8740   25.5710  -12.1560 C   0  0  0  0  0  0  0  0  0  0  0  0
   43.6210   26.0610  -12.8490 C   0  0  0  0  0  0  0  0  0  0  0  0
   42.7760   26.9430  -12.1580 C   0  0  0  0  0  0  0  0  0  0  0  0
   41.6010   27.4220  -12.7410 C   0  0  0  0  0  0  0  0  0  0  0  0
   41.2400   27.0380  -14.0360 C   0  0  0  0  0  0  0  0  0  0  0  0
   39.9910   27.5120  -14.6690 C   0  0  0  0  0  0  0  0  0  0  0  0
   39.7790   26.9550  -15.9260 O   0  0  0  0  0  0  0  0  0  0  0  0
   38.6540   27.3070  -16.6270 C   0  0  0  0  0  0  0  0  0  0  0  0
   38.4750   26.7140  -17.8760 C   0  0  0  0  0  0  0  0  0  0  0  0
   37.3500   27.0310  -18.6440 C   0  0  0  0  0  0  0  0  0  0  0  0
   36.4090   27.9420  -18.1610 C   0  0  0  0  0  0  0  0  0  0  0  0
   36.5910   28.5330  -16.9130 C   0  0  0  0  0  0  0  0  0  0  0  0
   35.6310   29.4170  -16.5020 O   0  0  0  0  0  0  0  0  0  0  0  0
   37.7150   28.2150  -16.1470 C   0  0  0  0  0  0  0  0  0  0  0  0
   37.9450   28.8130  -14.8310 C   0  0  0  0  0  0  0  0  0  0  0  0
   37.1650   29.6280  -14.3410 O   0  0  0  0  0  0  0  0  0  0  0  0
   39.1630   28.4030  -14.0940 C   0  0  0  0  0  0  0  0  0  0  0  0
   39.3770   28.9850  -12.8580 O   0  0  0  0  0  0  0  0  0  0  0  0
   42.0780   26.1460  -14.7220 C   0  0  0  0  0  0  0  0  0  0  0  0
   43.2610   25.6470  -14.1460 C   0  0  0  0  0  0  0  0  0  0  0  0
   44.1190   24.7060  -14.9490 C   0  0  0  0  0  0  0  0  0  0  0  0
   48.3905   26.9036  -14.1102 H   0  0  0  0  0  0  0  0  0  0  0  0
   48.3091   25.5109  -15.2418 H   0  0  0  0  0  0  0  0  0  0  0  0
   47.0044   26.7457  -15.2418 H   0  0  0  0  0  0  0  0  0  0  0  0
   46.2891   24.6823  -14.0815 H   0  0  0  0  0  0  0  0  0  0  0  0
   47.6894   24.8563  -12.9453 H   0  0  0  0  0  0  0  0  0  0  0  0
   46.7356   26.6020  -11.8027 H   0  0  0  0  0  0  0  0  0  0  0  0
   45.8055   27.1721  -13.2464 H   0  0  0  0  0  0  0  0  0  0  0  0
   44.9861   24.4928  -12.3431 H   0  0  0  0  0  0  0  0  0  0  0  0
   44.7728   25.7767  -11.0802 H   0  0  0  0  0  0  0  0  0  0  0  0
   43.0438   27.2624  -11.1400 H   0  0  0  0  0  0  0  0  0  0  0  0
   40.9531   28.1082  -12.1759 H   0  0  0  0  0  0  0  0  0  0  0  0
   39.2177   25.9976  -18.2570 H   0  0  0  0  0  0  0  0  0  0  0  0
   37.2066   26.5624  -19.6288 H   0  0  0  0  0  0  0  0  0  0  0  0
   35.5248   28.1928  -18.7653 H   0  0  0  0  0  0  0  0  0  0  0  0
   35.8400   30.0780  -15.8740 H   0  0  0  0  0  0  0  0  0  0  0  0
   39.0510   29.8460  -12.6840 H   0  0  0  0  0  0  0  0  0  0  0  0
   41.8026   25.8279  -15.7383 H   0  0  0  0  0  0  0  0  0  0  0  0
   44.7007   24.0681  -14.2673 H   0  0  0  0  0  0  0  0  0  0  0  0
   43.4779   24.0761  -15.5832 H   0  0  0  0  0  0  0  0  0  0  0  0
   44.8053   25.2863  -15.5832 H   0  0  0  0  0  0  0  0  0  0  0  0
  1  2  1  0
  2  3  1  0
  3  4  1  0
  4  5  1  0
  5  6  2  0
  6  7  1  0
  7  8  2  0
  8  9  1  0
  9 10  1  0
 10 11  1  0
 11 12  2  0
 12 13  1  0
 13 14  2  0
 14 15  1  0
 15 16  1  0
 15 17  2  0
 17 18  1  0
 18 19  2  0
 18 20  1  0
 20 21  1  0
  8 22  1  0
 22 23  2  0
 23 24  1  0
 23  5  1  0
 20  9  2  0
 17 11  1  0
  1 25  1  0
  1 26  1  0
  1 27  1  0
  2 28  1  0
  2 29  1  0
  3 30  1  0
  3 31  1  0
  4 32  1  0
  4 33  1  0
  6 34  1  0
  7 35  1  0
 12 36  1  0
 13 37  1  0
 14 38  1  0
 16 39  1  0
 21 40  1  0
 22 41  1  0
 24 42  1  0
 24 43  1  0
 24 44  1  0
M  END
>  <meeko>  (3) 
{"is_sidechain": [false], "free_energy": -6.101, "intermolecular_energy": -8.432, "internal_energy": 0.246}

$$$$
