cand_025_out
     RDKit          3D

 53 56  0  0  0  0  0  0  0  0999 V2000
   41.0480   26.9300  -11.1210 C   0  0  0  0  0  0  0  0  0  0  0  0
   42.3250   26.9190  -11.9480 C   0  0  0  0  0  0  0  0  0  0  0  0
   42.0460   26.6840  -13.4160 C   0  0  0  0  0  0  0  0  0  0  0  0
   40.8450   27.1770  -13.9630 C   0  0  0  0  0  0  0  0  0  0  0  0
   40.5210   26.9880  -15.3120 C   0  0  0  0  0  0  0  0  0  0  0  0
   39.2510   27.4810  -15.8860 C   0  0  0  0  0  0  0  0  0  0  0  0
   38.9510   26.8990  -17.1130 O   0  0  0  0  0  0  0  0  0  0  0  0
   37.7980   27.2670  -17.7570 C   0  0  0  0  0  0  0  0  0  0  0  0
   37.5280   26.6470  -18.9770 C   0  0  0  0  0  0  0  0  0  0  0  0
   36.3710   26.9770  -19.6870 C   0  0  0  0  0  0  0  0  0  0  0  0
   35.4850   27.9270  -19.1750 C   0  0  0  0  0  0  0  0  0  0  0  0
   35.7560   28.5440  -17.9560 C   0  0  0  0  0  0  0  0  0  0  0  0
   34.8450   29.4650  -17.5140 O   0  0  0  0  0  0  0  0  0  0  0  0
   36.9130   28.2130  -17.2470 C   0  0  0  0  0  0  0  0  0  0  0  0
   37.2360   28.8380  -15.9630 C   0  0  0  0  0  0  0  0  0  0  0  0
   36.5090   29.6870  -15.4530 O   0  0  0  0  0  0  0  0  0  0  0  0
   38.4830   28.4120  -15.2890 C   0  0  0  0  0  0  0  0  0  0  0  0
   38.7840   29.0170  -14.0840 O   0  0  0  0  0  0  0  0  0  0  0  0
   41.4170   26.2730  -16.1140 C   0  0  0  0  0  0  0  0  0  0  0  0
   42.6100   25.7720  -15.5820 C   0  0  0  0  0  0  0  0  0  0  0  0
   42.9410   25.9610  -14.2310 C   0  0  0  0  0  0  0  0  0  0  0  0
   44.1380   25.4680  -13.6770 N   0  0  0  0  0  0  0  0  0  0  0  0
   44.5430   24.1410  -14.1890 C   0  0  0  0  0  0  0  0  0  0  0  0
   45.7870   23.6420  -13.4170 C   0  0  0  0  0  0  0  0  0  0  0  0
   46.9240   24.5900  -13.5020 N   0  0  0  0  0  0  0  0  0  0  0  0
   48.0570   24.1070  -12.7150 C   0  0  0  0  0  0  0  0  0  0  0  0
   46.4840   25.9210  -13.0190 C   0  0  0  0  0  0  0  0  0  0  0  0
   45.2410   26.4500  -13.7750 C   0  0  0  0  0  0  0  0  0  0  0  0
   41.3040   26.9278  -10.0512 H   0  0  0  0  0  0  0  0  0  0  0  0
   40.4661   27.8332  -11.3569 H   0  0  0  0  0  0  0  0  0  0  0  0
   40.4507   26.0370  -11.3569 H   0  0  0  0  0  0  0  0  0  0  0  0
   42.8310   27.8889  -11.8333 H   0  0  0  0  0  0  0  0  0  0  0  0
   42.9579   26.0954  -11.5858 H   0  0  0  0  0  0  0  0  0  0  0  0
   40.1447   27.7238  -13.3145 H   0  0  0  0  0  0  0  0  0  0  0  0
   38.2260   25.8984  -19.3800 H   0  0  0  0  0  0  0  0  0  0  0  0
   36.1580   26.4885  -20.6493 H   0  0  0  0  0  0  0  0  0  0  0  0
   34.5740   28.1878  -19.7337 H   0  0  0  0  0  0  0  0  0  0  0  0
   35.0220   30.3810  -17.6090 H   0  0  0  0  0  0  0  0  0  0  0  0
   39.4870   29.6350  -14.0310 H   0  0  0  0  0  0  0  0  0  0  0  0
   41.1808   26.1028  -17.1748 H   0  0  0  0  0  0  0  0  0  0  0  0
   43.3018   25.2195  -16.2348 H   0  0  0  0  0  0  0  0  0  0  0  0
   43.7167   23.4281  -14.0511 H   0  0  0  0  0  0  0  0  0  0  0  0
   44.7863   24.2219  -15.2587 H   0  0  0  0  0  0  0  0  0  0  0  0
   45.5163   23.5093  -12.3591 H   0  0  0  0  0  0  0  0  0  0  0  0
   46.1066   22.6938  -13.8738 H   0  0  0  0  0  0  0  0  0  0  0  0
   47.2280   24.6660  -14.4730 H   0  0  0  0  0  0  0  0  0  0  0  0
   47.8275   24.2048  -11.6437 H   0  0  0  0  0  0  0  0  0  0  0  0
   48.2459   23.0501  -12.9545 H   0  0  0  0  0  0  0  0  0  0  0  0
   48.9503   24.7025  -12.9545 H   0  0  0  0  0  0  0  0  0  0  0  0
   46.2389   25.8439  -11.9494 H   0  0  0  0  0  0  0  0  0  0  0  0
   47.3074   26.6282  -13.1977 H   0  0  0  0  0  0  0  0  0  0  0  0
   44.9213   27.4036  -13.3296 H   0  0  0  0  0  0  0  0  0  0  0  0
   45.4979   26.6026  -14.8336 H   0  0  0  0  0  0  0  0  0  0  0  0
  1  2  1  0
  2  3  1  0
  3  4  2  0
  4  5  1  0
  5  6  1  0
  6  7  1  0
  7  8  1  0
  8  9  2  0
  9 10  1  0
 10 11  2  0
 11 12  1  0
 12 13  1  0
 12 14  2  0
 14 15  1  0
 15 16  2  0
 15 17  1  0
 17 18  1  0
  5 19  2  0
 19 20  1  0
 20 21  2  0
 21 22  1  0
 22 23  1  0
 23 24  1  0
 24 25  1  0
 25 26  1  0
 25 27  1  0
 27 28  1  0
 21  3  1  0
 28 22  1  0
 17  6  2  0
 14  8  1  0
  1 29  1  0
  1 30  1  0
  1 31  1  0
  2 32  1  0
  2 33  1  0
  4 34  1  0
  9 35  1  0
 10 36  1  0
 11 37  1  0
 13 38  1  0
 18 39  1  0
 19 40  1  0
 20 41  1  0
 23 42  1  0
 23 43  1  0
 24 44  1  0
 24 45  1  0
 25 46  1  0
 26 47  1  0
 26 48  1  0
 26 49  1  0
 27 50  1  0
 27 51  1  0
 28 52  1  0
 28 53  1  0
M  CHG  1  25   1
M  END
>  <meeko>  (1) 
{"is_sidechain": [false], "free_energy": -0.73, "intermolecular_energy": -0.901, "internal_energy": -0.034}

$$$$
cand_025_out
     RDKit          3D

 53 56  0  0  0  0  0  0  0  0999 V2000
   39.5240   28.5530  -12.5380 C   0  0  0  0  0  0  0  0  0  0  0  0
   38.7770   28.1920  -13.8130 C   0  0  0  0  0  0  0  0  0  0  0  0
   39.6420   27.4050  -14.7720 C   0  0  0  0  0  0  0  0  0  0  0  0
   40.8940   26.9360  -14.3240 C   0  0  0  0  0  0  0  0  0  0  0  0
   41.7470   26.2090  -15.1630 C   0  0  0  0  0  0  0  0  0  0  0  0
   43.0710   25.7360  -14.7070 C   0  0  0  0  0  0  0  0  0  0  0  0
   44.0450   26.7260  -14.7540 O   0  0  0  0  0  0  0  0  0  0  0  0
   45.3220   26.4220  -14.3570 C   0  0  0  0  0  0  0  0  0  0  0  0
   46.2630   27.4500  -14.4050 C   0  0  0  0  0  0  0  0  0  0  0  0
   47.5830   27.2070  -14.0160 C   0  0  0  0  0  0  0  0  0  0  0  0
   47.9590   25.9350  -13.5790 C   0  0  0  0  0  0  0  0  0  0  0  0
   47.0180   24.9110  -13.5310 C   0  0  0  0  0  0  0  0  0  0  0  0
   47.4540   23.6900  -13.0930 O   0  0  0  0  0  0  0  0  0  0  0  0
   45.6980   25.1550  -13.9200 C   0  0  0  0  0  0  0  0  0  0  0  0
   44.6770   24.1060  -13.8850 C   0  0  0  0  0  0  0  0  0  0  0  0
   44.9340   22.9610  -13.5190 O   0  0  0  0  0  0  0  0  0  0  0  0
   43.3060   24.4700  -14.3110 C   0  0  0  0  0  0  0  0  0  0  0  0
   42.3540   23.4690  -14.2860 O   0  0  0  0  0  0  0  0  0  0  0  0
   41.3370   25.9700  -16.4790 C   0  0  0  0  0  0  0  0  0  0  0  0
   40.1020   26.4370  -16.9380 C   0  0  0  0  0  0  0  0  0  0  0  0
   39.2410   27.1630  -16.1020 C   0  0  0  0  0  0  0  0  0  0  0  0
   37.9910   27.6380  -16.5440 N   0  0  0  0  0  0  0  0  0  0  0  0
   37.6930   29.0300  -16.1420 C   0  0  0  0  0  0  0  0  0  0  0  0
   36.2490   29.3950  -16.5610 C   0  0  0  0  0  0  0  0  0  0  0  0
   36.0210   29.2250  -18.0160 N   0  0  0  0  0  0  0  0  0  0  0  0
   34.6340   29.5280  -18.3590 C   0  0  0  0  0  0  0  0  0  0  0  0
   36.3620   27.8350  -18.4010 C   0  0  0  0  0  0  0  0  0  0  0  0
   37.8020   27.4390  -17.9980 C   0  0  0  0  0  0  0  0  0  0  0  0
   38.9214   28.2618  -11.6650 H   0  0  0  0  0  0  0  0  0  0  0  0
   40.4862   28.0205  -12.5135 H   0  0  0  0  0  0  0  0  0  0  0  0
   39.7046   29.6378  -12.5135 H   0  0  0  0  0  0  0  0  0  0  0  0
   37.8969   27.5868  -13.5499 H   0  0  0  0  0  0  0  0  0  0  0  0
   38.4818   29.1275  -14.3107 H   0  0  0  0  0  0  0  0  0  0  0  0
   41.2079   27.1463  -13.2909 H   0  0  0  0  0  0  0  0  0  0  0  0
   45.9663   28.4518  -14.7489 H   0  0  0  0  0  0  0  0  0  0  0  0
   48.3258   28.0175  -14.0540 H   0  0  0  0  0  0  0  0  0  0  0  0
   48.9980   25.7428  -13.2730 H   0  0  0  0  0  0  0  0  0  0  0  0
   48.3140   23.6030  -12.7290 H   0  0  0  0  0  0  0  0  0  0  0  0
   41.5730   23.5770  -13.7790 H   0  0  0  0  0  0  0  0  0  0  0  0
   41.9936   25.4085  -17.1599 H   0  0  0  0  0  0  0  0  0  0  0  0
   39.7994   26.2311  -17.9753 H   0  0  0  0  0  0  0  0  0  0  0  0
   37.7922   29.1248  -15.0506 H   0  0  0  0  0  0  0  0  0  0  0  0
   38.3999   29.7119  -16.6373 H   0  0  0  0  0  0  0  0  0  0  0  0
   35.5484   28.7455  -16.0157 H   0  0  0  0  0  0  0  0  0  0  0  0
   36.0882   30.4559  -16.3187 H   0  0  0  0  0  0  0  0  0  0  0  0
   36.6190   29.8740  -18.5290 H   0  0  0  0  0  0  0  0  0  0  0  0
   34.0479   29.6560  -17.4370 H   0  0  0  0  0  0  0  0  0  0  0  0
   34.5965   30.4555  -18.9492 H   0  0  0  0  0  0  0  0  0  0  0  0
   34.2131   28.7006  -18.9492 H   0  0  0  0  0  0  0  0  0  0  0  0
   35.6574   27.1502  -17.9064 H   0  0  0  0  0  0  0  0  0  0  0  0
   36.2938   27.7680  -19.4968 H   0  0  0  0  0  0  0  0  0  0  0  0
   37.9724   26.3811  -18.2465 H   0  0  0  0  0  0  0  0  0  0  0  0
   38.5177   28.0696  -18.5458 H   0  0  0  0  0  0  0  0  0  0  0  0
  1  2  1  0
  2  3  1  0
  3  4  2  0
  4  5  1  0
  5  6  1  0
  6  7  1  0
  7  8  1  0
  8  9  2  0
  9 10  1  0
 10 11  2  0
 11 12  1  0
 12 13  1  0
 12 14  2  0
 14 15  1  0
 15 16  2  0
 15 17  1  0
 17 18  1  0
  5 19  2  0
 19 20  1  0
 20 21  2  0
 21 22  1  0
 22 23  1  0
 23 24  1  0
 24 25  1  0
 25 26  1  0
 25 27  1  0
 27 28  1  0
 21  3  1  0
 28 22  1  0
 17  6  2  0
 14  8  1  0
  1 29  1  0
  1 30  1  0
  1 31  1  0
  2 32  1  0
  2 33  1  0
  4 34  1  0
  9 35  1  0
 10 36  1  0
 11 37  1  0
 13 38  1  0
 18 39  1  0
 19 40  1  0
 20 41  1  0
 23 42  1  0
 23 43  1  0
 24 44  1  0
 24 45  1  0
 25 46  1  0
 26 47  1  0
 26 48  1  0
 26 49  1  0
 27 50  1  0
 27 51  1  0
 28 52  1  0
 28 53  1  0
M  CHG  1  25   1
M  END
>  <meeko>  (2) 
{"is_sidechain": [false], "free_energy": 0.444, "intermolecular_energy": 0.24, "internal_energy": 0.274}

$$$$
cand_025_out
     RDKit          3D

 53 56  0  0  0  0  0  0  0  0999 V2000
   40.3700   27.3410  -11.8920 C   0  0  0  0  0  0  0  0  0  0  0  0
   41.7440   26.9720  -12.4310 C   0  0  0  0  0  0  0  0  0  0  0  0
   41.6990   26.6150  -13.9000 C   0  0  0  0  0  0  0  0  0  0  0  0
   40.5530   26.9600  -14.6440 C   0  0  0  0  0  0  0  0  0  0  0  0
   40.4430   26.6520  -16.0060 C   0  0  0  0  0  0  0  0  0  0  0  0
   39.2330   26.9870  -16.7860 C   0  0  0  0  0  0  0  0  0  0  0  0
   38.5050   28.0330  -16.2310 O   0  0  0  0  0  0  0  0  0  0  0  0
   37.3570   28.4490  -16.8560 C   0  0  0  0  0  0  0  0  0  0  0  0
   36.6670   29.5110  -16.2740 C   0  0  0  0  0  0  0  0  0  0  0  0
   35.4890   29.9820  -16.8590 C   0  0  0  0  0  0  0  0  0  0  0  0
   35.0030   29.3890  -18.0260 C   0  0  0  0  0  0  0  0  0  0  0  0
   35.6940   28.3290  -18.6060 C   0  0  0  0  0  0  0  0  0  0  0  0
   35.1620   27.7960  -19.7480 O   0  0  0  0  0  0  0  0  0  0  0  0
   36.8720   27.8590  -18.0200 C   0  0  0  0  0  0  0  0  0  0  0  0
   37.6300   26.7470  -18.5970 C   0  0  0  0  0  0  0  0  0  0  0  0
   37.2610   26.1710  -19.6180 O   0  0  0  0  0  0  0  0  0  0  0  0
   38.8700   26.3300  -17.9040 C   0  0  0  0  0  0  0  0  0  0  0  0
   39.5700   25.2710  -18.4500 O   0  0  0  0  0  0  0  0  0  0  0  0
   41.4990   25.9690  -16.6180 C   0  0  0  0  0  0  0  0  0  0  0  0
   42.6390   25.6150  -15.8890 C   0  0  0  0  0  0  0  0  0  0  0  0
   42.7560   25.9230  -14.5250 C   0  0  0  0  0  0  0  0  0  0  0  0
   43.8970   25.5790  -13.7750 N   0  0  0  0  0  0  0  0  0  0  0  0
   44.5400   24.3140  -14.1920 C   0  0  0  0  0  0  0  0  0  0  0  0
   45.6920   23.9690  -13.2180 C   0  0  0  0  0  0  0  0  0  0  0  0
   46.7030   25.0500  -13.1310 N   0  0  0  0  0  0  0  0  0  0  0  0
   47.7410   24.7070  -12.1620 C   0  0  0  0  0  0  0  0  0  0  0  0
   46.0300   26.3140  -12.7490 C   0  0  0  0  0  0  0  0  0  0  0  0
   44.8740   26.6890  -13.7060 C   0  0  0  0  0  0  0  0  0  0  0  0
   40.3937   27.3346  -10.7923 H   0  0  0  0  0  0  0  0  0  0  0  0
   40.0944   28.3450  -12.2470 H   0  0  0  0  0  0  0  0  0  0  0  0
   39.6285   26.6102  -12.2470 H   0  0  0  0  0  0  0  0  0  0  0  0
   42.4209   27.8282  -12.2941 H   0  0  0  0  0  0  0  0  0  0  0  0
   42.1006   26.0906  -11.8778 H   0  0  0  0  0  0  0  0  0  0  0  0
   39.7252   27.4836  -14.1433 H   0  0  0  0  0  0  0  0  0  0  0  0
   37.0498   29.9780  -15.3546 H   0  0  0  0  0  0  0  0  0  0  0  0
   34.9442   30.8202  -16.4001 H   0  0  0  0  0  0  0  0  0  0  0  0
   34.0751   29.7591  -18.4865 H   0  0  0  0  0  0  0  0  0  0  0  0
   34.2350   27.6710  -19.8190 H   0  0  0  0  0  0  0  0  0  0  0  0
   39.7690   24.5200  -17.9260 H   0  0  0  0  0  0  0  0  0  0  0  0
   41.4322   25.7074  -17.6843 H   0  0  0  0  0  0  0  0  0  0  0  0
   43.4596   25.0850  -16.3946 H   0  0  0  0  0  0  0  0  0  0  0  0
   43.7958   23.5041  -14.1797 H   0  0  0  0  0  0  0  0  0  0  0  0
   44.9443   24.4285  -15.2086 H   0  0  0  0  0  0  0  0  0  0  0  0
   45.2690   23.7998  -12.2168 H   0  0  0  0  0  0  0  0  0  0  0  0
   46.1959   23.0692  -13.6007 H   0  0  0  0  0  0  0  0  0  0  0  0
   47.1500   25.1670  -14.0410 H   0  0  0  0  0  0  0  0  0  0  0  0
   47.3484   24.8367  -11.1427 H   0  0  0  0  0  0  0  0  0  0  0  0
   48.0463   23.6602  -12.3068 H   0  0  0  0  0  0  0  0  0  0  0  0
   48.6099   25.3658  -12.3068 H   0  0  0  0  0  0  0  0  0  0  0  0
   45.6234   26.2028  -11.7330 H   0  0  0  0  0  0  0  0  0  0  0  0
   46.7789   27.1179  -12.8024 H   0  0  0  0  0  0  0  0  0  0  0  0
   44.3718   27.5943  -13.3342 H   0  0  0  0  0  0  0  0  0  0  0  0
   45.2815   26.8758  -14.7105 H   0  0  0  0  0  0  0  0  0  0  0  0
  1  2  1  0
  2  3  1  0
  3  4  2  0
  4  5  1  0
  5  6  1  0
  6  7  1  0
  7  8  1  0
  8  9  2  0
  9 10  1  0
 10 11  2  0
 11 12  1  0
 12 13  1  0
 12 14  2  0
 14 15  1  0
 15 16  2  0
 15 17  1  0
 17 18  1  0
  5 19  2  0
 19 20  1  0
 20 21  2  0
 21 22  1  0
 22 23  1  0
 23 24  1  0
 24 25  1  0
 25 26  1  0
 25 27  1  0
 27 28  1  0
 21  3  1  0
 28 22  1  0
 17  6  2  0
 14  8  1  0
  1 29  1  0
  1 30  1  0
  1 31  1  0
  2 32  1  0
  2 33  1  0
  4 34  1  0
  9 35  1  0
 10 36  1  0
 11 37  1  0
 13 38  1  0
 18 39  1  0
 19 40  1  0
 20 41  1  0
 23 42  1  0
 23 43  1  0
 24 44  1  0
 24 45  1  0
 25 46  1  0
 26 47  1  0
 26 48  1  0
 26 49  1  0
 27 50  1  0
 27 51  1  0
 28 52  1  0
 28 53  1  0
M  CHG  1  25   1
M  END
>  <meeko>  (3) 
{"is_sidechain": [false], "free_energy": 0.735, "intermolecular_energy": 0.838, "internal_energy": 0.035}

$$$$
cand_025_out
     RDKit          3D

 53 56  0  0  0  0  0  0  0  0999 V2000
   37.2930   29.8990  -13.6200 C   0  0  0  0  0  0  0  0  0  0  0  0
   36.7970   29.1510  -14.8480 C   0  0  0  0  0  0  0  0  0  0  0  0
   37.8370   28.1930  -15.3850 C   0  0  0  0  0  0  0  0  0  0  0  0
   38.9710   27.9140  -14.5960 C   0  0  0  0  0  0  0  0  0  0  0  0
   39.9750   27.0440  -15.0360 C   0  0  0  0  0  0  0  0  0  0  0  0
   41.1790   26.7670  -14.2250 C   0  0  0  0  0  0  0  0  0  0  0  0
   42.2040   26.1830  -14.9600 O   0  0  0  0  0  0  0  0  0  0  0  0
   43.3820   25.8740  -14.3280 C   0  0  0  0  0  0  0  0  0  0  0  0
   44.3880   25.3040  -15.1070 C   0  0  0  0  0  0  0  0  0  0  0  0
   45.6120   24.9630  -14.5250 C   0  0  0  0  0  0  0  0  0  0  0  0
   45.8270   25.1930  -13.1650 C   0  0  0  0  0  0  0  0  0  0  0  0
   44.8210   25.7630  -12.3900 C   0  0  0  0  0  0  0  0  0  0  0  0
   45.0990   25.9600  -11.0650 O   0  0  0  0  0  0  0  0  0  0  0  0
   43.5980   26.1040  -12.9720 C   0  0  0  0  0  0  0  0  0  0  0  0
   42.5130   26.7050  -12.1940 C   0  0  0  0  0  0  0  0  0  0  0  0
   42.6250   26.9310  -10.9910 O   0  0  0  0  0  0  0  0  0  0  0  0
   41.2590   27.0350  -12.9080 C   0  0  0  0  0  0  0  0  0  0  0  0
   40.2380   27.5900  -12.1600 O   0  0  0  0  0  0  0  0  0  0  0  0
   39.8390   26.4620  -16.3010 C   0  0  0  0  0  0  0  0  0  0  0  0
   38.7220   26.7350  -17.0970 C   0  0  0  0  0  0  0  0  0  0  0  0
   37.7110   27.6040  -16.6600 C   0  0  0  0  0  0  0  0  0  0  0  0
   36.5770   27.8890  -17.4440 N   0  0  0  0  0  0  0  0  0  0  0  0
   36.2780   29.3320  -17.5780 C   0  0  0  0  0  0  0  0  0  0  0  0
   34.9440   29.5190  -18.3390 C   0  0  0  0  0  0  0  0  0  0  0  0
   34.9590   28.8760  -19.6750 N   0  0  0  0  0  0  0  0  0  0  0  0
   33.6650   29.0290  -20.3350 C   0  0  0  0  0  0  0  0  0  0  0  0
   35.2980   27.4410  -19.5190 C   0  0  0  0  0  0  0  0  0  0  0  0
   36.6300   27.2200  -18.7630 C   0  0  0  0  0  0  0  0  0  0  0  0
   36.9498   29.3815  -12.7120 H   0  0  0  0  0  0  0  0  0  0  0  0
   38.3925   29.9319  -13.6299 H   0  0  0  0  0  0  0  0  0  0  0  0
   36.8954   30.9246  -13.6299 H   0  0  0  0  0  0  0  0  0  0  0  0
   35.8956   28.5817  -14.5772 H   0  0  0  0  0  0  0  0  0  0  0  0
   36.5790   29.8910  -15.6321 H   0  0  0  0  0  0  0  0  0  0  0  0
   39.0693   28.3918  -13.6101 H   0  0  0  0  0  0  0  0  0  0  0  0
   44.2185   25.1229  -16.1787 H   0  0  0  0  0  0  0  0  0  0  0  0
   46.4063   24.5132  -15.1388 H   0  0  0  0  0  0  0  0  0  0  0  0
   46.7900   24.9242  -12.7064 H   0  0  0  0  0  0  0  0  0  0  0  0
   45.4560   26.7780  -10.7780 H   0  0  0  0  0  0  0  0  0  0  0  0
   39.5110   27.9980  -12.5880 H   0  0  0  0  0  0  0  0  0  0  0  0
   40.6193   25.7821  -16.6736 H   0  0  0  0  0  0  0  0  0  0  0  0
   38.6344   26.2592  -18.0849 H   0  0  0  0  0  0  0  0  0  0  0  0
   36.1949   29.7827  -16.5780 H   0  0  0  0  0  0  0  0  0  0  0  0
   37.0886   29.8218  -18.1374 H   0  0  0  0  0  0  0  0  0  0  0  0
   34.1325   29.0759  -17.7431 H   0  0  0  0  0  0  0  0  0  0  0  0
   34.7922   30.5982  -18.4885 H   0  0  0  0  0  0  0  0  0  0  0  0
   35.6640   29.3280  -20.2580 H   0  0  0  0  0  0  0  0  0  0  0  0
   32.8748   29.1224  -19.5755 H   0  0  0  0  0  0  0  0  0  0  0  0
   33.6783   29.9318  -20.9633 H   0  0  0  0  0  0  0  0  0  0  0  0
   33.4674   28.1480  -20.9633 H   0  0  0  0  0  0  0  0  0  0  0  0
   34.4898   26.9474  -18.9593 H   0  0  0  0  0  0  0  0  0  0  0  0
   35.4139   27.0159  -20.5269 H   0  0  0  0  0  0  0  0  0  0  0  0
   36.7931   26.1418  -18.6189 H   0  0  0  0  0  0  0  0  0  0  0  0
   37.4559   27.6453  -19.3521 H   0  0  0  0  0  0  0  0  0  0  0  0
  1  2  1  0
  2  3  1  0
  3  4  2  0
  4  5  1  0
  5  6  1  0
  6  7  1  0
  7  8  1  0
  8  9  2  0
  9 10  1  0
 10 11  2  0
 11 12  1  0
 12 13  1  0
 12 14  2  0
 14 15  1  0
 15 16  2  0
 15 17  1  0
 17 18  1  0
  5 19  2  0
 19 20  1  0
 20 21  2  0
 21 22  1  0
 22 23  1  0
 23 24  1  0
 24 25  1  0
 25 26  1  0
 25 27  1  0
 27 28  1  0
 21  3  1  0
 28 22  1  0
 17  6  2  0
 14  8  1  0
  1 29  1  0
  1 30  1  0
  1 31  1  0
  2 32  1  0
  2 33  1  0
  4 34  1  0
  9 35  1  0
 10 36  1  0
 11 37  1  0
 13 38  1  0
 18 39  1  0
 19 40  1  0
 20 41  1  0
 23 42  1  0
 23 43  1  0
 24 44  1  0
 24 45  1  0
 25 46  1  0
 26 47  1  0
 26 48  1  0
 26 49  1  0
 27 50  1  0
 27 51  1  0
 28 52  1  0
 28 53  1  0
M  CHG  1  25   1
M  END
>  <meeko>  (4) 
{"is_sidechain": [false], "free_energy": 1.751, "intermolecular_energy": 1.433, "internal_energy": 0.693}

$$$$
