cand_004_out
     RDKit          3D

 38 40  0  0  0  0  0  0  0  0999 V2000
   41.8900   26.9300  -11.0700 C   0  0  0  0  0  0  0  0  0  0  0  0
   43.2160   26.5840  -11.7310 C   0  0  0  0  0  0  0  0  0  0  0  0
   43.0360   26.1800  -13.1790 C   0  0  0  0  0  0  0  0  0  0  0  0
   41.8650   26.6000  -13.8440 C   0  0  0  0  0  0  0  0  0  0  0  0
   41.6070   26.2530  -15.1780 C   0  0  0  0  0  0  0  0  0  0  0  0
   40.3900   26.7120  -15.8790 C   0  0  0  0  0  0  0  0  0  0  0  0
   39.6210   27.5800  -15.1140 O   0  0  0  0  0  0  0  0  0  0  0  0
   38.4610   28.0830  -15.6470 C   0  0  0  0  0  0  0  0  0  0  0  0
   37.7110   28.9390  -14.8380 C   0  0  0  0  0  0  0  0  0  0  0  0
   36.5210   29.4880  -15.3210 C   0  0  0  0  0  0  0  0  0  0  0  0
   36.0800   29.1800  -16.6100 C   0  0  0  0  0  0  0  0  0  0  0  0
   36.8300   28.3260  -17.4140 C   0  0  0  0  0  0  0  0  0  0  0  0
   36.3400   28.0680  -18.6650 O   0  0  0  0  0  0  0  0  0  0  0  0
   38.0200   27.7770  -16.9310 C   0  0  0  0  0  0  0  0  0  0  0  0
   38.8380   26.8750  -17.7430 C   0  0  0  0  0  0  0  0  0  0  0  0
   38.5210   26.5620  -18.8890 O   0  0  0  0  0  0  0  0  0  0  0  0
   40.0780   26.3410  -17.1360 C   0  0  0  0  0  0  0  0  0  0  0  0
   40.8510   25.5000  -17.9150 O   0  0  0  0  0  0  0  0  0  0  0  0
   42.5550   25.4820  -15.8580 C   0  0  0  0  0  0  0  0  0  0  0  0
   43.7210   25.0550  -15.2150 C   0  0  0  0  0  0  0  0  0  0  0  0
   43.9760   25.3880  -13.8730 C   0  0  0  0  0  0  0  0  0  0  0  0
   45.2580   24.9020  -13.2270 C   0  0  0  0  0  0  0  0  0  0  0  0
   46.1550   25.9020  -13.0030 F   0  0  0  0  0  0  0  0  0  0  0  0
   45.9070   23.9760  -13.9870 F   0  0  0  0  0  0  0  0  0  0  0  0
   45.0650   24.3100  -12.0140 F   0  0  0  0  0  0  0  0  0  0  0  0
   42.0064   26.8996   -9.9766 H   0  0  0  0  0  0  0  0  0  0  0  0
   41.5792   27.9393  -11.3778 H   0  0  0  0  0  0  0  0  0  0  0  0
   41.1257   26.2012  -11.3778 H   0  0  0  0  0  0  0  0  0  0  0  0
   43.8758   27.4630  -11.6863 H   0  0  0  0  0  0  0  0  0  0  0  0
   43.6542   25.7317  -11.1910 H   0  0  0  0  0  0  0  0  0  0  0  0
   41.1338   27.2169  -13.3010 H   0  0  0  0  0  0  0  0  0  0  0  0
   38.0568   29.1805  -13.8221 H   0  0  0  0  0  0  0  0  0  0  0  0
   35.9302   30.1639  -14.6853 H   0  0  0  0  0  0  0  0  0  0  0  0
   35.1419   29.6114  -16.9892 H   0  0  0  0  0  0  0  0  0  0  0  0
   35.4170   28.0890  -18.8200 H   0  0  0  0  0  0  0  0  0  0  0  0
   40.5920   25.3070  -18.7950 H   0  0  0  0  0  0  0  0  0  0  0  0
   42.3817   25.2087  -16.9093 H   0  0  0  0  0  0  0  0  0  0  0  0
   44.4519   24.4477  -15.7691 H   0  0  0  0  0  0  0  0  0  0  0  0
  1  2  1  0
  2  3  1  0
  3  4  2  0
  4  5  1  0
  5  6  1  0
  6  7  1  0
  7  8  1  0
  8  9  2  0
  9 10  1  0
 10 11  2  0
 11 12  1  0
 12 13  1  0
 12 14  2  0
 14 15  1  0
 15 16  2  0
 15 17  1  0
 17 18  1  0
  5 19  2  0
 19 20  1  0
 20 21  2  0
 21 22  1  0
 22 23  1  0
 22 24  1  0
 22 25  1  0
 21  3  1  0
 17  6  2  0
 14  8  1  0
  1 26  1  0
  1 27  1  0
  1 28  1  0
  2 29  1  0
  2 30  1  0
  4 31  1  0
  9 32  1  0
 10 33  1  0
 11 34  1  0
 13 35  1  0
 18 36  1  0
 19 37  1  0
 20 38  1  0
M  END
>  <meeko>  (1) 
{"is_sidechain": [false], "free_energy": -7.296, "intermolecular_energy": -9.002, "internal_energy": 0.111}

$$$$
cand_004_out
     RDKit          3D

 38 40  0  0  0  0  0  0  0  0999 V2000
   46.6850   27.3320  -13.5010 C   0  0  0  0  0  0  0  0  0  0  0  0
   45.4230   27.1670  -12.6680 C   0  0  0  0  0  0  0  0  0  0  0  0
   44.3510   26.4000  -13.4120 C   0  0  0  0  0  0  0  0  0  0  0  0
   43.1130   27.0380  -13.6350 C   0  0  0  0  0  0  0  0  0  0  0  0
   42.0570   26.3930  -14.2950 C   0  0  0  0  0  0  0  0  0  0  0  0
   40.7680   27.0710  -14.5470 C   0  0  0  0  0  0  0  0  0  0  0  0
   40.2680   26.8250  -15.8210 O   0  0  0  0  0  0  0  0  0  0  0  0
   39.0750   27.3940  -16.1860 C   0  0  0  0  0  0  0  0  0  0  0  0
   38.6190   27.1340  -17.4790 C   0  0  0  0  0  0  0  0  0  0  0  0
   37.4100   27.6810  -17.9150 C   0  0  0  0  0  0  0  0  0  0  0  0
   36.6590   28.4890  -17.0580 C   0  0  0  0  0  0  0  0  0  0  0  0
   37.1170   28.7480  -15.7690 C   0  0  0  0  0  0  0  0  0  0  0  0
   36.3310   29.5460  -14.9830 O   0  0  0  0  0  0  0  0  0  0  0  0
   38.3260   28.2000  -15.3340 C   0  0  0  0  0  0  0  0  0  0  0  0
   38.8440   28.4460  -13.9870 C   0  0  0  0  0  0  0  0  0  0  0  0
   38.2370   29.1410  -13.1730 O   0  0  0  0  0  0  0  0  0  0  0  0
   40.1390   27.8260  -13.6270 C   0  0  0  0  0  0  0  0  0  0  0  0
   40.6130   28.0530  -12.3480 O   0  0  0  0  0  0  0  0  0  0  0  0
   42.2600   25.0880  -14.7530 C   0  0  0  0  0  0  0  0  0  0  0  0
   43.4790   24.4380  -14.5400 C   0  0  0  0  0  0  0  0  0  0  0  0
   44.5360   25.0760  -13.8650 C   0  0  0  0  0  0  0  0  0  0  0  0
   45.8380   24.3270  -13.6650 C   0  0  0  0  0  0  0  0  0  0  0  0
   46.8040   24.6910  -14.5510 F   0  0  0  0  0  0  0  0  0  0  0  0
   45.6900   22.9790  -13.7990 F   0  0  0  0  0  0  0  0  0  0  0  0
   46.3870   24.5130  -12.4310 F   0  0  0  0  0  0  0  0  0  0  0  0
   47.5524   27.4454  -12.8340 H   0  0  0  0  0  0  0  0  0  0  0  0
   46.8241   26.4444  -14.1357 H   0  0  0  0  0  0  0  0  0  0  0  0
   46.5912   28.2255  -14.1357 H   0  0  0  0  0  0  0  0  0  0  0  0
   45.6744   26.6226  -11.7458 H   0  0  0  0  0  0  0  0  0  0  0  0
   45.0302   28.1695  -12.4426 H   0  0  0  0  0  0  0  0  0  0  0  0
   42.9719   28.0700  -13.2815 H   0  0  0  0  0  0  0  0  0  0  0  0
   39.2111   26.4989  -18.1542 H   0  0  0  0  0  0  0  0  0  0  0  0
   37.0491   27.4754  -18.9336 H   0  0  0  0  0  0  0  0  0  0  0  0
   35.7069   28.9201  -17.4011 H   0  0  0  0  0  0  0  0  0  0  0  0
   35.4920   29.8260  -15.2910 H   0  0  0  0  0  0  0  0  0  0  0  0
   40.1060   27.7870  -11.6060 H   0  0  0  0  0  0  0  0  0  0  0  0
   41.4516   24.5669  -15.2869 H   0  0  0  0  0  0  0  0  0  0  0  0
   43.6144   23.4097  -14.9065 H   0  0  0  0  0  0  0  0  0  0  0  0
  1  2  1  0
  2  3  1  0
  3  4  2  0
  4  5  1  0
  5  6  1  0
  6  7  1  0
  7  8  1  0
  8  9  2  0
  9 10  1  0
 10 11  2  0
 11 12  1  0
 12 13  1  0
 12 14  2  0
 14 15  1  0
 15 16  2  0
 15 17  1  0
 17 18  1  0
  5 19  2  0
 19 20  1  0
 20 21  2  0
 21 22  1  0
 22 23  1  0
 22 24  1  0
 22 25  1  0
 21  3  1  0
 17  6  2  0
 14  8  1  0
  1 26  1  0
  1 27  1  0
  1 28  1  0
  2 29  1  0
  2 30  1  0
  4 31  1  0
  9 32  1  0
 10 33  1  0
 11 34  1  0
 13 35  1  0
 18 36  1  0
 19 37  1  0
 20 38  1  0
M  END
>  <meeko>  (2) 
{"is_sidechain": [false], "free_energy": -6.407, "intermolecular_energy": -8.313, "internal_energy": 0.518}

$$$$
cand_004_out
     RDKit          3D

 38 40  0  0  0  0  0  0  0  0999 V2000
   38.6090   26.5880  -19.2280 C   0  0  0  0  0  0  0  0  0  0  0  0
   37.3370   26.9030  -18.4540 C   0  0  0  0  0  0  0  0  0  0  0  0
   37.6240   27.6900  -17.1930 C   0  0  0  0  0  0  0  0  0  0  0  0
   38.6770   27.2520  -16.3630 C   0  0  0  0  0  0  0  0  0  0  0  0
   38.9960   27.9080  -15.1650 C   0  0  0  0  0  0  0  0  0  0  0  0
   40.1140   27.4620  -14.3080 C   0  0  0  0  0  0  0  0  0  0  0  0
   41.1380   26.8570  -15.0270 O   0  0  0  0  0  0  0  0  0  0  0  0
   42.2390   26.3950  -14.3520 C   0  0  0  0  0  0  0  0  0  0  0  0
   43.2370   25.7810  -15.1110 C   0  0  0  0  0  0  0  0  0  0  0  0
   44.3850   25.2910  -14.4850 C   0  0  0  0  0  0  0  0  0  0  0  0
   44.5360   25.4130  -13.1020 C   0  0  0  0  0  0  0  0  0  0  0  0
   43.5390   26.0260  -12.3480 C   0  0  0  0  0  0  0  0  0  0  0  0
   43.7520   26.1130  -10.9990 O   0  0  0  0  0  0  0  0  0  0  0  0
   42.3900   26.5170  -12.9730 C   0  0  0  0  0  0  0  0  0  0  0  0
   41.3190   27.1670  -12.2180 C   0  0  0  0  0  0  0  0  0  0  0  0
   41.3810   27.3190  -10.9990 O   0  0  0  0  0  0  0  0  0  0  0  0
   40.1400   27.6450  -12.9740 C   0  0  0  0  0  0  0  0  0  0  0  0
   39.1390   28.2700  -12.2530 O   0  0  0  0  0  0  0  0  0  0  0  0
   38.2500   29.0360  -14.8080 C   0  0  0  0  0  0  0  0  0  0  0  0
   37.2020   29.4840  -15.6170 C   0  0  0  0  0  0  0  0  0  0  0  0
   36.8690   28.8190  -16.8110 C   0  0  0  0  0  0  0  0  0  0  0  0
   35.7250   29.3500  -17.6520 C   0  0  0  0  0  0  0  0  0  0  0  0
   35.9400   30.6150  -18.1080 F   0  0  0  0  0  0  0  0  0  0  0  0
   34.5490   29.3910  -16.9660 F   0  0  0  0  0  0  0  0  0  0  0  0
   35.4750   28.6010  -18.7640 F   0  0  0  0  0  0  0  0  0  0  0  0
   39.4274   26.3853  -18.5215 H   0  0  0  0  0  0  0  0  0  0  0  0
   38.4436   25.7037  -19.8610 H   0  0  0  0  0  0  0  0  0  0  0  0
   38.8754   27.4473  -19.8610 H   0  0  0  0  0  0  0  0  0  0  0  0
   36.6666   27.4927  -19.0965 H   0  0  0  0  0  0  0  0  0  0  0  0
   36.8704   25.9504  -18.1627 H   0  0  0  0  0  0  0  0  0  0  0  0
   39.2642   26.3717  -16.6635 H   0  0  0  0  0  0  0  0  0  0  0  0
   43.1192   25.6834  -16.2003 H   0  0  0  0  0  0  0  0  0  0  0  0
   45.1721   24.8079  -15.0825 H   0  0  0  0  0  0  0  0  0  0  0  0
   45.4403   25.0258  -12.6097 H   0  0  0  0  0  0  0  0  0  0  0  0
   43.1680   26.6130  -10.4640 H   0  0  0  0  0  0  0  0  0  0  0  0
   38.4340   27.7670  -11.8950 H   0  0  0  0  0  0  0  0  0  0  0  0
   38.4907   29.5763  -13.8806 H   0  0  0  0  0  0  0  0  0  0  0  0
   36.6276   30.3721  -15.3147 H   0  0  0  0  0  0  0  0  0  0  0  0
  1  2  1  0
  2  3  1  0
  3  4  2  0
  4  5  1  0
  5  6  1  0
  6  7  1  0
  7  8  1  0
  8  9  2  0
  9 10  1  0
 10 11  2  0
 11 12  1  0
 12 13  1  0
 12 14  2  0
 14 15  1  0
 15 16  2  0
 15 17  1  0
 17 18  1  0
  5 19  2  0
 19 20  1  0
 20 21  2  0
 21 22  1  0
 22 23  1  0
 22 24  1  0
 22 25  1  0
 21  3  1  0
 17  6  2  0
 14  8  1  0
  1 26  1  0
  1 27  1  0
  1 28  1  0
  2 29  1  0
  2 30  1  0
  4 31  1  0
  9 32  1  0
 10 33  1  0
 11 34  1  0
 13 35  1  0
 18 36  1  0
 19 37  1  0
 20 38  1  0
M  END
>  <meeko>  (3) 
{"is_sidechain": [false], "free_energy": -6.175, "intermolecular_energy": -7.862, "internal_energy": 0.353}

$$$$
cand_004_out
     RDKit          3D

 38 40  0  0  0  0  0  0  0  0999 V2000
   42.3890   26.6010  -10.5930 C   0  0  0  0  0  0  0  0  0  0  0  0
   43.5740   26.5810  -11.5480 C   0  0  0  0  0  0  0  0  0  0  0  0
   43.1430   26.3170  -12.9750 C   0  0  0  0  0  0  0  0  0  0  0  0
   41.9110   26.8500  -13.4060 C   0  0  0  0  0  0  0  0  0  0  0  0
   41.4240   26.6350  -14.7040 C   0  0  0  0  0  0  0  0  0  0  0  0
   40.1430   27.2120  -15.1600 C   0  0  0  0  0  0  0  0  0  0  0  0
   39.7450   26.7310  -16.4020 O   0  0  0  0  0  0  0  0  0  0  0  0
   38.5700   27.1860  -16.9440 C   0  0  0  0  0  0  0  0  0  0  0  0
   38.2170   26.6880  -18.1990 C   0  0  0  0  0  0  0  0  0  0  0  0
   37.0320   27.1090  -18.8070 C   0  0  0  0  0  0  0  0  0  0  0  0
   36.2010   28.0280  -18.1600 C   0  0  0  0  0  0  0  0  0  0  0  0
   36.5570   28.5220  -16.9080 C   0  0  0  0  0  0  0  0  0  0  0  0
   35.6970   29.4170  -16.3320 O   0  0  0  0  0  0  0  0  0  0  0  0
   37.7420   28.1010  -16.3000 C   0  0  0  0  0  0  0  0  0  0  0  0
   38.1530   28.5970  -14.9860 C   0  0  0  0  0  0  0  0  0  0  0  0
   37.4720   29.4010  -14.3510 O   0  0  0  0  0  0  0  0  0  0  0  0
   39.4310   28.0940  -14.4330 C   0  0  0  0  0  0  0  0  0  0  0  0
   39.8040   28.5570  -13.1850 O   0  0  0  0  0  0  0  0  0  0  0  0
   42.2040   25.8820  -15.5870 C   0  0  0  0  0  0  0  0  0  0  0  0
   43.4280   25.3430  -15.1780 C   0  0  0  0  0  0  0  0  0  0  0  0
   43.9120   25.5440  -13.8730 C   0  0  0  0  0  0  0  0  0  0  0  0
   45.2460   24.9410  -13.4840 C   0  0  0  0  0  0  0  0  0  0  0  0
   46.1590   25.8730  -13.0930 F   0  0  0  0  0  0  0  0  0  0  0  0
   45.8250   24.2510  -14.5060 F   0  0  0  0  0  0  0  0  0  0  0  0
   45.1620   24.0580  -12.4480 F   0  0  0  0  0  0  0  0  0  0  0  0
   42.7542   26.5948   -9.5554 H   0  0  0  0  0  0  0  0  0  0  0  0
   41.7934   27.5093  -10.7667 H   0  0  0  0  0  0  0  0  0  0  0  0
   41.7631   25.7133  -10.7667 H   0  0  0  0  0  0  0  0  0  0  0  0
   44.0827   27.5553  -11.5044 H   0  0  0  0  0  0  0  0  0  0  0  0
   44.2479   25.7684  -11.2390 H   0  0  0  0  0  0  0  0  0  0  0  0
   41.3145   27.4517  -12.7044 H   0  0  0  0  0  0  0  0  0  0  0  0
   38.8709   25.9650  -18.7086 H   0  0  0  0  0  0  0  0  0  0  0  0
   36.7525   26.7169  -19.7960 H   0  0  0  0  0  0  0  0  0  0  0  0
   35.2680   28.3601  -18.6389 H   0  0  0  0  0  0  0  0  0  0  0  0
   35.7170   30.3180  -16.5880 H   0  0  0  0  0  0  0  0  0  0  0  0
   40.2560   27.9910  -12.5900 H   0  0  0  0  0  0  0  0  0  0  0  0
   41.8510   25.7117  -16.6148 H   0  0  0  0  0  0  0  0  0  0  0  0
   44.0226   24.7514  -15.8896 H   0  0  0  0  0  0  0  0  0  0  0  0
  1  2  1  0
  2  3  1  0
  3  4  2  0
  4  5  1  0
  5  6  1  0
  6  7  1  0
  7  8  1  0
  8  9  2  0
  9 10  1  0
 10 11  2  0
 11 12  1  0
 12 13  1  0
 12 14  2  0
 14 15  1  0
 15 16  2  0
 15 17  1  0
 17 18  1  0
  5 19  2  0
 19 20  1  0
 20 21  2  0
 21 22  1  0
 22 23  1  0
 22 24  1  0
 22 25  1  0
 21  3  1  0
 17  6  2  0
 14  8  1  0
  1 26  1  0
  1 27  1  0
  1 28  1  0
  2 29  1  0
  2 30  1  0
  4 31  1  0
  9 32  1  0
 10 33  1  0
 11 34  1  0
 13 35  1  0
 18 36  1  0
 19 37  1  0
 20 38  1  0
M  END
>  <meeko>  (4) 
{"is_sidechain": [false], "free_energy": -5.612, "intermolecular_energy": -6.804, "internal_energy": -0.01}

$$$$
cand_004_out
     RDKit          3D

 38 40  0  0  0  0  0  0  0  0999 V2000
   45.4360   25.4900  -14.7320 C   0  0  0  0  0  0  0  0  0  0  0  0
   44.0940   24.7820  -14.6220 C   0  0  0  0  0  0  0  0  0  0  0  0
   42.9870   25.7290  -14.2100 C   0  0  0  0  0  0  0  0  0  0  0  0
   41.9420   25.9670  -15.1260 C   0  0  0  0  0  0  0  0  0  0  0  0
   40.8890   26.8460  -14.8350 C   0  0  0  0  0  0  0  0  0  0  0  0
   39.7830   27.0770  -15.7880 C   0  0  0  0  0  0  0  0  0  0  0  0
   38.8570   28.0060  -15.3260 O   0  0  0  0  0  0  0  0  0  0  0  0
   37.7780   28.3140  -16.1140 C   0  0  0  0  0  0  0  0  0  0  0  0
   36.8650   29.2390  -15.6040 C   0  0  0  0  0  0  0  0  0  0  0  0
   35.7450   29.5990  -16.3570 C   0  0  0  0  0  0  0  0  0  0  0  0
   35.5370   29.0340  -17.6170 C   0  0  0  0  0  0  0  0  0  0  0  0
   36.4490   28.1110  -18.1220 C   0  0  0  0  0  0  0  0  0  0  0  0
   36.1850   27.5980  -19.3630 O   0  0  0  0  0  0  0  0  0  0  0  0
   37.5690   27.7510  -17.3700 C   0  0  0  0  0  0  0  0  0  0  0  0
   38.5520   26.7850  -17.8630 C   0  0  0  0  0  0  0  0  0  0  0  0
   38.4430   26.2500  -18.9650 O   0  0  0  0  0  0  0  0  0  0  0  0
   39.7000   26.4660  -16.9850 C   0  0  0  0  0  0  0  0  0  0  0  0
   40.6300   25.5630  -17.4650 O   0  0  0  0  0  0  0  0  0  0  0  0
   40.8830   27.4850  -13.5910 C   0  0  0  0  0  0  0  0  0  0  0  0
   41.9120   27.2640  -12.6710 C   0  0  0  0  0  0  0  0  0  0  0  0
   42.9770   26.3940  -12.9640 C   0  0  0  0  0  0  0  0  0  0  0  0
   44.0630   26.1870  -11.9280 C   0  0  0  0  0  0  0  0  0  0  0  0
   43.6100   26.3010  -10.6500 F   0  0  0  0  0  0  0  0  0  0  0  0
   45.0790   27.0880  -12.0500 F   0  0  0  0  0  0  0  0  0  0  0  0
   44.6530   24.9600  -11.9960 F   0  0  0  0  0  0  0  0  0  0  0  0
   45.8258   25.6956  -13.7241 H   0  0  0  0  0  0  0  0  0  0  0  0
   46.1454   24.8488  -15.2757 H   0  0  0  0  0  0  0  0  0  0  0  0
   45.3072   26.4375  -15.2757 H   0  0  0  0  0  0  0  0  0  0  0  0
   43.8419   24.3443  -15.5992 H   0  0  0  0  0  0  0  0  0  0  0  0
   44.1818   24.0042  -13.8492 H   0  0  0  0  0  0  0  0  0  0  0  0
   41.9531   25.4486  -16.0961 H   0  0  0  0  0  0  0  0  0  0  0  0
   37.0274   29.6835  -14.6110 H   0  0  0  0  0  0  0  0  0  0  0  0
   35.0257   30.3287  -15.9569 H   0  0  0  0  0  0  0  0  0  0  0  0
   34.6545   29.3175  -18.2093 H   0  0  0  0  0  0  0  0  0  0  0  0
   35.3260   27.2860  -19.5670 H   0  0  0  0  0  0  0  0  0  0  0  0
   40.4310   25.0410  -18.2180 H   0  0  0  0  0  0  0  0  0  0  0  0
   40.0603   28.1684  -13.3339 H   0  0  0  0  0  0  0  0  0  0  0  0
   41.8881   27.7802  -11.6999 H   0  0  0  0  0  0  0  0  0  0  0  0
  1  2  1  0
  2  3  1  0
  3  4  2  0
  4  5  1  0
  5  6  1  0
  6  7  1  0
  7  8  1  0
  8  9  2  0
  9 10  1  0
 10 11  2  0
 11 12  1  0
 12 13  1  0
 12 14  2  0
 14 15  1  0
 15 16  2  0
 15 17  1  0
 17 18  1  0
  5 19  2  0
 19 20  1  0
 20 21  2  0
 21 22  1  0
 22 23  1  0
 22 24  1  0
 22 25  1  0
 21  3  1  0
 17  6  2  0
 14  8  1  0
  1 26  1  0
  1 27  1  0
  1 28  1  0
  2 29  1  0
  2 30  1  0
  4 31  1  0
  9 32  1  0
 10 33  1  0
 11 34  1  0
 13 35  1  0
 18 36  1  0
 19 37  1  0
 20 38  1  0
M  END
>  <meeko>  (5) 
{"is_sidechain": [false], "free_energy": -4.401, "intermolecular_energy": -6.133, "internal_energy": 0.813}

$$$$
