cand_028_out
     RDKit          3D

 38 40  0  0  0  0  0  0  0  0999 V2000
   46.8780   26.9360  -13.4570 C   0  0  0  0  0  0  0  0  0  0  0  0
   45.5480   27.0420  -12.7260 C   0  0  0  0  0  0  0  0  0  0  0  0
   44.4500   26.2870  -13.4410 C   0  0  0  0  0  0  0  0  0  0  0  0
   43.2170   26.9390  -13.6470 C   0  0  0  0  0  0  0  0  0  0  0  0
   42.1430   26.3010  -14.2830 C   0  0  0  0  0  0  0  0  0  0  0  0
   40.8580   26.9920  -14.5230 C   0  0  0  0  0  0  0  0  0  0  0  0
   40.3450   26.7500  -15.7930 O   0  0  0  0  0  0  0  0  0  0  0  0
   39.1550   27.3320  -16.1490 C   0  0  0  0  0  0  0  0  0  0  0  0
   38.6850   27.0750  -17.4370 C   0  0  0  0  0  0  0  0  0  0  0  0
   37.4780   27.6340  -17.8630 C   0  0  0  0  0  0  0  0  0  0  0  0
   36.7430   28.4520  -17.0020 C   0  0  0  0  0  0  0  0  0  0  0  0
   37.2150   28.7070  -15.7180 C   0  0  0  0  0  0  0  0  0  0  0  0
   36.4450   29.5150  -14.9250 O   0  0  0  0  0  0  0  0  0  0  0  0
   38.4230   28.1470  -15.2920 C   0  0  0  0  0  0  0  0  0  0  0  0
   38.9540   28.3900  -13.9490 C   0  0  0  0  0  0  0  0  0  0  0  0
   38.3620   29.0910  -13.1320 O   0  0  0  0  0  0  0  0  0  0  0  0
   40.2460   27.7560  -13.6000 C   0  0  0  0  0  0  0  0  0  0  0  0
   40.7320   27.9820  -12.3250 O   0  0  0  0  0  0  0  0  0  0  0  0
   42.3220   24.9880  -14.7300 C   0  0  0  0  0  0  0  0  0  0  0  0
   43.5350   24.3250  -14.5290 C   0  0  0  0  0  0  0  0  0  0  0  0
   44.6040   24.9570  -13.8780 C   0  0  0  0  0  0  0  0  0  0  0  0
   45.8910   24.2010  -13.6910 C   0  0  0  0  0  0  0  0  0  0  0  0
   47.6953   26.8709  -12.7237 H   0  0  0  0  0  0  0  0  0  0  0  0
   46.8788   26.0349  -14.0879 H   0  0  0  0  0  0  0  0  0  0  0  0
   47.0215   27.8256  -14.0879 H   0  0  0  0  0  0  0  0  0  0  0  0
   45.6643   26.6268  -11.7140 H   0  0  0  0  0  0  0  0  0  0  0  0
   45.2631   28.1038  -12.6886 H   0  0  0  0  0  0  0  0  0  0  0  0
   43.0946   27.9755  -13.2995 H   0  0  0  0  0  0  0  0  0  0  0  0
   39.2644   26.4327  -18.1165 H   0  0  0  0  0  0  0  0  0  0  0  0
   37.1059   27.4298  -18.8778 H   0  0  0  0  0  0  0  0  0  0  0  0
   35.7933   28.8936  -17.3381 H   0  0  0  0  0  0  0  0  0  0  0  0
   36.7160   30.3950  -14.7510 H   0  0  0  0  0  0  0  0  0  0  0  0
   40.8360   27.2670  -11.7290 H   0  0  0  0  0  0  0  0  0  0  0  0
   41.4987   24.4718  -15.2454 H   0  0  0  0  0  0  0  0  0  0  0  0
   43.6533   23.2916  -14.8868 H   0  0  0  0  0  0  0  0  0  0  0  0
   46.0935   24.0820  -12.6164 H   0  0  0  0  0  0  0  0  0  0  0  0
   45.8054   23.2097  -14.1599 H   0  0  0  0  0  0  0  0  0  0  0  0
   46.7152   24.7585  -14.1599 H   0  0  0  0  0  0  0  0  0  0  0  0
  1  2  1  0
  2  3  1  0
  3  4  2  0
  4  5  1  0
  5  6  1  0
  6  7  1  0
  7  8  1  0
  8  9  2  0
  9 10  1  0
 10 11  2  0
 11 12  1  0
 12 13  1  0
 12 14  2  0
 14 15  1  0
 15 16  2  0
 15 17  1  0
 17 18  1  0
  5 19  2  0
 19 20  1  0
 20 21  2  0
 21 22  1  0
 21  3  1  0
 17  6  2  0
 14  8  1  0
  1 23  1  0
  1 24  1  0
  1 25  1  0
  2 26  1  0
  2 27  1  0
  4 28  1  0
  9 29  1  0
 10 30  1  0
 11 31  1  0
 13 32  1  0
 18 33  1  0
 19 34  1  0
 20 35  1  0
 22 36  1  0
 22 37  1  0
 22 38  1  0
M  END
>  <meeko>  (1) 
{"is_sidechain": [false], "free_energy": -7.719, "intermolecular_energy": -9.073, "internal_energy": 0.52}

$$$$
cand_028_out
     RDKit          3D

 38 40  0  0  0  0  0  0  0  0999 V2000
   47.7790   26.9300  -14.2910 C   0  0  0  0  0  0  0  0  0  0  0  0
   46.6410   27.0940  -13.2950 C   0  0  0  0  0  0  0  0  0  0  0  0
   45.4830   26.1710  -13.6040 C   0  0  0  0  0  0  0  0  0  0  0  0
   44.2120   26.7430  -13.8130 C   0  0  0  0  0  0  0  0  0  0  0  0
   43.0840   25.9560  -14.0840 C   0  0  0  0  0  0  0  0  0  0  0  0
   41.7560   26.5560  -14.3290 C   0  0  0  0  0  0  0  0  0  0  0  0
   41.2800   26.3080  -15.6120 O   0  0  0  0  0  0  0  0  0  0  0  0
   40.0560   26.8100  -15.9740 C   0  0  0  0  0  0  0  0  0  0  0  0
   39.6250   26.5500  -17.2760 C   0  0  0  0  0  0  0  0  0  0  0  0
   38.3860   27.0300  -17.7080 C   0  0  0  0  0  0  0  0  0  0  0  0
   37.5800   27.7690  -16.8400 C   0  0  0  0  0  0  0  0  0  0  0  0
   38.0130   28.0260  -15.5420 C   0  0  0  0  0  0  0  0  0  0  0  0
   37.1730   28.7550  -14.7440 O   0  0  0  0  0  0  0  0  0  0  0  0
   39.2530   27.5460  -15.1100 C   0  0  0  0  0  0  0  0  0  0  0  0
   39.7450   27.7950  -13.7530 C   0  0  0  0  0  0  0  0  0  0  0  0
   39.0900   28.4290  -12.9300 O   0  0  0  0  0  0  0  0  0  0  0  0
   41.0750   27.2490  -13.3980 C   0  0  0  0  0  0  0  0  0  0  0  0
   41.5240   27.4790  -12.1100 O   0  0  0  0  0  0  0  0  0  0  0  0
   43.2470   24.5680  -14.1600 C   0  0  0  0  0  0  0  0  0  0  0  0
   44.4990   23.9850  -13.9500 C   0  0  0  0  0  0  0  0  0  0  0  0
   45.6240   24.7710  -13.6620 C   0  0  0  0  0  0  0  0  0  0  0  0
   46.9500   24.0930  -13.4500 C   0  0  0  0  0  0  0  0  0  0  0  0
   48.7254   26.7936  -13.7472 H   0  0  0  0  0  0  0  0  0  0  0  0
   47.5891   26.0499  -14.9230 H   0  0  0  0  0  0  0  0  0  0  0  0
   47.8454   27.8279  -14.9230 H   0  0  0  0  0  0  0  0  0  0  0  0
   47.0163   26.8681  -12.2860 H   0  0  0  0  0  0  0  0  0  0  0  0
   46.2776   28.1302  -13.3604 H   0  0  0  0  0  0  0  0  0  0  0  0
   44.1022   27.8363  -13.7621 H   0  0  0  0  0  0  0  0  0  0  0  0
   40.2597   25.9683  -17.9607 H   0  0  0  0  0  0  0  0  0  0  0  0
   38.0451   26.8253  -18.7336 H   0  0  0  0  0  0  0  0  0  0  0  0
   36.6050   28.1474  -17.1809 H   0  0  0  0  0  0  0  0  0  0  0  0
   36.3270   29.0050  -15.0590 H   0  0  0  0  0  0  0  0  0  0  0  0
   41.2100   26.9500  -11.4030 H   0  0  0  0  0  0  0  0  0  0  0  0
   42.3805   23.9297  -14.3874 H   0  0  0  0  0  0  0  0  0  0  0  0
   44.6041   22.8918  -14.0116 H   0  0  0  0  0  0  0  0  0  0  0  0
   47.1431   23.9943  -12.3716 H   0  0  0  0  0  0  0  0  0  0  0  0
   46.9294   23.0948  -13.9117 H   0  0  0  0  0  0  0  0  0  0  0  0
   47.7472   24.6941  -13.9117 H   0  0  0  0  0  0  0  0  0  0  0  0
  1  2  1  0
  2  3  1  0
  3  4  2  0
  4  5  1  0
  5  6  1  0
  6  7  1  0
  7  8  1  0
  8  9  2  0
  9 10  1  0
 10 11  2  0
 11 12  1  0
 12 13  1  0
 12 14  2  0
 14 15  1  0
 15 16  2  0
 15 17  1  0
 17 18  1  0
  5 19  2  0
 19 20  1  0
 20 21  2  0
 21 22  1  0
 21  3  1  0
 17  6  2  0
 14  8  1  0
  1 23  1  0
  1 24  1  0
  1 25  1  0
  2 26  1  0
  2 27  1  0
  4 28  1  0
  9 29  1  0
 10 30  1  0
 11 31  1  0
 13 32  1  0
 18 33  1  0
 19 34  1  0
 20 35  1  0
 22 36  1  0
 22 37  1  0
 22 38  1  0
M  END
>  <meeko>  (2) 
{"is_sidechain": [false], "free_energy": -7.619, "intermolecular_energy": -8.53, "internal_energy": 0.094}

$$$$
cand_028_out
     RDKit          3D

 38 40  0  0  0  0  0  0  0  0999 V2000
   41.7610   26.9020  -10.9260 C   0  0  0  0  0  0  0  0  0  0  0  0
   43.1030   26.5930  -11.5730 C   0  0  0  0  0  0  0  0  0  0  0  0
   42.9540   26.2110  -13.0280 C   0  0  0  0  0  0  0  0  0  0  0  0
   41.7930   26.6260  -13.7120 C   0  0  0  0  0  0  0  0  0  0  0  0
   41.5690   26.2960  -15.0550 C   0  0  0  0  0  0  0  0  0  0  0  0
   40.3650   26.7540  -15.7800 C   0  0  0  0  0  0  0  0  0  0  0  0
   39.5570   27.5860  -15.0130 O   0  0  0  0  0  0  0  0  0  0  0  0
   38.4030   28.0820  -15.5650 C   0  0  0  0  0  0  0  0  0  0  0  0
   37.6150   28.9000  -14.7550 C   0  0  0  0  0  0  0  0  0  0  0  0
   36.4290   29.4410  -15.2550 C   0  0  0  0  0  0  0  0  0  0  0  0
   36.0310   29.1640  -16.5650 C   0  0  0  0  0  0  0  0  0  0  0  0
   36.8200   28.3480  -17.3710 C   0  0  0  0  0  0  0  0  0  0  0  0
   36.3720   28.1180  -18.6440 O   0  0  0  0  0  0  0  0  0  0  0  0
   38.0070   27.8060  -16.8690 C   0  0  0  0  0  0  0  0  0  0  0  0
   38.8650   26.9430  -17.6840 C   0  0  0  0  0  0  0  0  0  0  0  0
   38.5870   26.6600  -18.8460 O   0  0  0  0  0  0  0  0  0  0  0  0
   40.0970   26.4150  -17.0550 C   0  0  0  0  0  0  0  0  0  0  0  0
   40.9060   25.6110  -17.8370 O   0  0  0  0  0  0  0  0  0  0  0  0
   42.5420   25.5450  -15.7240 C   0  0  0  0  0  0  0  0  0  0  0  0
   43.6960   25.1200  -15.0600 C   0  0  0  0  0  0  0  0  0  0  0  0
   43.9110   25.4360  -13.7110 C   0  0  0  0  0  0  0  0  0  0  0  0
   45.1730   24.9590  -13.0450 C   0  0  0  0  0  0  0  0  0  0  0  0
   41.8674   26.8775   -9.8314 H   0  0  0  0  0  0  0  0  0  0  0  0
   41.4242   27.9012  -11.2394 H   0  0  0  0  0  0  0  0  0  0  0  0
   41.0212   26.1507  -11.2394 H   0  0  0  0  0  0  0  0  0  0  0  0
   43.7446   27.4838  -11.5033 H   0  0  0  0  0  0  0  0  0  0  0  0
   43.5489   25.7397  -11.0410 H   0  0  0  0  0  0  0  0  0  0  0  0
   41.0423   27.2255  -13.1763 H   0  0  0  0  0  0  0  0  0  0  0  0
   37.9278   29.1186  -13.7233 H   0  0  0  0  0  0  0  0  0  0  0  0
   35.8073   30.0860  -14.6167 H   0  0  0  0  0  0  0  0  0  0  0  0
   35.0963   29.5897  -16.9588 H   0  0  0  0  0  0  0  0  0  0  0  0
   36.3550   27.2450  -18.9830 H   0  0  0  0  0  0  0  0  0  0  0  0
   40.6480   24.7320  -18.0310 H   0  0  0  0  0  0  0  0  0  0  0  0
   42.3971   25.2865  -16.7833 H   0  0  0  0  0  0  0  0  0  0  0  0
   44.4471   24.5285  -15.6041 H   0  0  0  0  0  0  0  0  0  0  0  0
   45.0511   25.0051  -11.9527 H   0  0  0  0  0  0  0  0  0  0  0  0
   45.3777   23.9215  -13.3477 H   0  0  0  0  0  0  0  0  0  0  0  0
   46.0128   25.6017  -13.3477 H   0  0  0  0  0  0  0  0  0  0  0  0
  1  2  1  0
  2  3  1  0
  3  4  2  0
  4  5  1  0
  5  6  1  0
  6  7  1  0
  7  8  1  0
  8  9  2  0
  9 10  1  0
 10 11  2  0
 11 12  1  0
 12 13  1  0
 12 14  2  0
 14 15  1  0
 15 16  2  0
 15 17  1  0
 17 18  1  0
  5 19  2  0
 19 20  1  0
 20 21  2  0
 21 22  1  0
 21  3  1  0
 17  6  2  0
 14  8  1  0
  1 23  1  0
  1 24  1  0
  1 25  1  0
  2 26  1  0
  2 27  1  0
  4 28  1  0
  9 29  1  0
 10 30  1  0
 11 31  1  0
 13 32  1  0
 18 33  1  0
 19 34  1  0
 20 35  1  0
 22 36  1  0
 22 37  1  0
 22 38  1  0
M  END
>  <meeko>  (3) 
{"is_sidechain": [false], "free_energy": -7.448, "intermolecular_energy": -8.472, "internal_energy": 0.238}

$$$$
cand_028_out
     RDKit          3D

 38 40  0  0  0  0  0  0  0  0999 V2000
   46.5350   27.0020  -13.3700 C   0  0  0  0  0  0  0  0  0  0  0  0
   45.0840   27.2860  -13.0130 C   0  0  0  0  0  0  0  0  0  0  0  0
   44.1360   26.3280  -13.6990 C   0  0  0  0  0  0  0  0  0  0  0  0
   42.9560   26.8490  -14.2680 C   0  0  0  0  0  0  0  0  0  0  0  0
   42.0170   26.0260  -14.9040 C   0  0  0  0  0  0  0  0  0  0  0  0
   40.7930   26.5740  -15.5230 C   0  0  0  0  0  0  0  0  0  0  0  0
   40.0660   27.3850  -14.6580 O   0  0  0  0  0  0  0  0  0  0  0  0
   38.9040   27.9600  -15.1060 C   0  0  0  0  0  0  0  0  0  0  0  0
   38.2000   28.7530  -14.1990 C   0  0  0  0  0  0  0  0  0  0  0  0
   37.0090   29.3690  -14.5910 C   0  0  0  0  0  0  0  0  0  0  0  0
   36.5230   29.1930  -15.8890 C   0  0  0  0  0  0  0  0  0  0  0  0
   37.2290   28.4020  -16.7910 C   0  0  0  0  0  0  0  0  0  0  0  0
   36.6980   28.2720  -18.0460 O   0  0  0  0  0  0  0  0  0  0  0  0
   38.4200   27.7840  -16.3980 C   0  0  0  0  0  0  0  0  0  0  0  0
   39.1920   26.9430  -17.3160 C   0  0  0  0  0  0  0  0  0  0  0  0
   38.8340   26.7470  -18.4740 O   0  0  0  0  0  0  0  0  0  0  0  0
   40.4350   26.3290  -16.7970 C   0  0  0  0  0  0  0  0  0  0  0  0
   41.1630   25.5480  -17.6770 O   0  0  0  0  0  0  0  0  0  0  0  0
   42.2810   24.6540  -14.9780 C   0  0  0  0  0  0  0  0  0  0  0  0
   43.4430   24.1190  -14.4150 C   0  0  0  0  0  0  0  0  0  0  0  0
   44.3740   24.9420  -13.7640 C   0  0  0  0  0  0  0  0  0  0  0  0
   45.6120   24.3170  -13.1800 C   0  0  0  0  0  0  0  0  0  0  0  0
   47.1237   26.8868  -12.4479 H   0  0  0  0  0  0  0  0  0  0  0  0
   46.5928   26.0755  -13.9601 H   0  0  0  0  0  0  0  0  0  0  0  0
   46.9379   27.8383  -13.9601 H   0  0  0  0  0  0  0  0  0  0  0  0
   44.9604   27.1899  -11.9242 H   0  0  0  0  0  0  0  0  0  0  0  0
   44.8430   28.3045  -13.3514 H   0  0  0  0  0  0  0  0  0  0  0  0
   42.7673   27.9312  -14.2111 H   0  0  0  0  0  0  0  0  0  0  0  0
   38.5822   28.8929  -13.1771 H   0  0  0  0  0  0  0  0  0  0  0  0
   36.4529   29.9937  -13.8765 H   0  0  0  0  0  0  0  0  0  0  0  0
   35.5851   29.6781  -16.1973 H   0  0  0  0  0  0  0  0  0  0  0  0
   36.4870   29.0360  -18.5460 H   0  0  0  0  0  0  0  0  0  0  0  0
   42.0230   25.2580  -17.4450 H   0  0  0  0  0  0  0  0  0  0  0  0
   41.5662   23.9891  -15.4848 H   0  0  0  0  0  0  0  0  0  0  0  0
   43.6302   23.0372  -14.4833 H   0  0  0  0  0  0  0  0  0  0  0  0
   45.5544   24.3461  -12.0819 H   0  0  0  0  0  0  0  0  0  0  0  0
   45.6885   23.2722  -13.5156 H   0  0  0  0  0  0  0  0  0  0  0  0
   46.4981   24.8758  -13.5156 H   0  0  0  0  0  0  0  0  0  0  0  0
  1  2  1  0
  2  3  1  0
  3  4  2  0
  4  5  1  0
  5  6  1  0
  6  7  1  0
  7  8  1  0
  8  9  2  0
  9 10  1  0
 10 11  2  0
 11 12  1  0
 12 13  1  0
 12 14  2  0
 14 15  1  0
 15 16  2  0
 15 17  1  0
 17 18  1  0
  5 19  2  0
 19 20  1  0
 20 21  2  0
 21 22  1  0
 21  3  1  0
 17  6  2  0
 14  8  1  0
  1 23  1  0
  1 24  1  0
  1 25  1  0
  2 26  1  0
  2 27  1  0
  4 28  1  0
  9 29  1  0
 10 30  1  0
 11 31  1  0
 13 32  1  0
 18 33  1  0
 19 34  1  0
 20 35  1  0
 22 36  1  0
 22 37  1  0
 22 38  1  0
M  END
>  <meeko>  (4) 
{"is_sidechain": [false], "free_energy": -7.052, "intermolecular_energy": -8.345, "internal_energy": 0.577}

$$$$
cand_028_out
     RDKit          3D

 38 40  0  0  0  0  0  0  0  0999 V2000
   38.4420   26.6420  -19.1300 C   0  0  0  0  0  0  0  0  0  0  0  0
   37.1960   26.9810  -18.3250 C   0  0  0  0  0  0  0  0  0  0  0  0
   37.5290   27.7540  -17.0690 C   0  0  0  0  0  0  0  0  0  0  0  0
   38.5990   27.3000  -16.2700 C   0  0  0  0  0  0  0  0  0  0  0  0
   38.9580   27.9480  -15.0810 C   0  0  0  0  0  0  0  0  0  0  0  0
   40.0960   27.4880  -14.2560 C   0  0  0  0  0  0  0  0  0  0  0  0
   41.1020   26.8940  -15.0090 O   0  0  0  0  0  0  0  0  0  0  0  0
   42.2190   26.4200  -14.3680 C   0  0  0  0  0  0  0  0  0  0  0  0
   43.1960   25.8180  -15.1600 C   0  0  0  0  0  0  0  0  0  0  0  0
   44.3590   25.3160  -14.5710 C   0  0  0  0  0  0  0  0  0  0  0  0
   44.5440   25.4180  -13.1900 C   0  0  0  0  0  0  0  0  0  0  0  0
   43.5670   26.0200  -12.4030 C   0  0  0  0  0  0  0  0  0  0  0  0
   43.8120   26.0880  -11.0580 O   0  0  0  0  0  0  0  0  0  0  0  0
   42.4030   26.5210  -12.9930 C   0  0  0  0  0  0  0  0  0  0  0  0
   41.3510   27.1610  -12.2000 C   0  0  0  0  0  0  0  0  0  0  0  0
   41.4440   27.2950  -10.9830 O   0  0  0  0  0  0  0  0  0  0  0  0
   40.1540   27.6510  -12.9220 C   0  0  0  0  0  0  0  0  0  0  0  0
   39.1730   28.2660  -12.1650 O   0  0  0  0  0  0  0  0  0  0  0  0
   38.2340   29.0820  -14.6990 C   0  0  0  0  0  0  0  0  0  0  0  0
   37.1670   29.5430  -15.4760 C   0  0  0  0  0  0  0  0  0  0  0  0
   36.7970   28.8840  -16.6570 C   0  0  0  0  0  0  0  0  0  0  0  0
   35.6450   29.4240  -17.4590 C   0  0  0  0  0  0  0  0  0  0  0  0
   39.2716   26.4163  -18.4439 H   0  0  0  0  0  0  0  0  0  0  0  0
   38.2418   25.7657  -19.7640 H   0  0  0  0  0  0  0  0  0  0  0  0
   38.7133   27.4990  -19.7640 H   0  0  0  0  0  0  0  0  0  0  0  0
   36.5240   27.5887  -18.9489 H   0  0  0  0  0  0  0  0  0  0  0  0
   36.7155   26.0374  -18.0271 H   0  0  0  0  0  0  0  0  0  0  0  0
   39.1667   26.4135  -16.5890 H   0  0  0  0  0  0  0  0  0  0  0  0
   43.0511   25.7384  -16.2475 H   0  0  0  0  0  0  0  0  0  0  0  0
   45.1297   24.8400  -15.1951 H   0  0  0  0  0  0  0  0  0  0  0  0
   45.4599   25.0233  -12.7259 H   0  0  0  0  0  0  0  0  0  0  0  0
   43.2870   25.5910  -10.4610 H   0  0  0  0  0  0  0  0  0  0  0  0
   39.3960   28.6810  -11.3550 H   0  0  0  0  0  0  0  0  0  0  0  0
   38.5070   29.6169  -13.7774 H   0  0  0  0  0  0  0  0  0  0  0  0
   36.6096   30.4358  -15.1561 H   0  0  0  0  0  0  0  0  0  0  0  0
   34.8634   29.7904  -16.7772 H   0  0  0  0  0  0  0  0  0  0  0  0
   35.9957   30.2515  -18.0932 H   0  0  0  0  0  0  0  0  0  0  0  0
   35.2333   28.6251  -18.0932 H   0  0  0  0  0  0  0  0  0  0  0  0
  1  2  1  0
  2  3  1  0
  3  4  2  0
  4  5  1  0
  5  6  1  0
  6  7  1  0
  7  8  1  0
  8  9  2  0
  9 10  1  0
 10 11  2  0
 11 12  1  0
 12 13  1  0
 12 14  2  0
 14 15  1  0
 15 16  2  0
 15 17  1  0
 17 18  1  0
  5 19  2  0
 19 20  1  0
 20 21  2  0
 21 22  1  0
 21  3  1  0
 17  6  2  0
 14  8  1  0
  1 23  1  0
  1 24  1  0
  1 25  1  0
  2 26  1  0
  2 27  1  0
  4 28  1  0
  9 29  1  0
 10 30  1  0
 11 31  1  0
 13 32  1  0
 18 33  1  0
 19 34  1  0
 20 35  1  0
 22 36  1  0
 22 37  1  0
 22 38  1  0
M  END
>  <meeko>  (5) 
{"is_sidechain": [false], "free_energy": -6.962, "intermolecular_energy": -7.693, "internal_energy": 0.029}

$$$$
cand_028_out
     RDKit          3D

 38 40  0  0  0  0  0  0  0  0999 V2000
   36.4470   29.4790  -14.5890 C   0  0  0  0  0  0  0  0  0  0  0  0
   36.4590   29.1160  -16.0660 C   0  0  0  0  0  0  0  0  0  0  0  0
   37.5480   28.1200  -16.3940 C   0  0  0  0  0  0  0  0  0  0  0  0
   38.5750   27.9190  -15.4500 C   0  0  0  0  0  0  0  0  0  0  0  0
   39.6310   27.0290  -15.6860 C   0  0  0  0  0  0  0  0  0  0  0  0
   40.6940   26.7980  -14.6860 C   0  0  0  0  0  0  0  0  0  0  0  0
   41.8350   26.2210  -15.2340 O   0  0  0  0  0  0  0  0  0  0  0  0
   42.9010   25.9510  -14.4140 C   0  0  0  0  0  0  0  0  0  0  0  0
   44.0180   25.3570  -15.0030 C   0  0  0  0  0  0  0  0  0  0  0  0
   45.1390   25.0580  -14.2260 C   0  0  0  0  0  0  0  0  0  0  0  0
   45.1430   25.3510  -12.8600 C   0  0  0  0  0  0  0  0  0  0  0  0
   44.0270   25.9440  -12.2760 C   0  0  0  0  0  0  0  0  0  0  0  0
   44.0980   26.2060  -10.9340 O   0  0  0  0  0  0  0  0  0  0  0  0
   42.9050   26.2430  -13.0540 C   0  0  0  0  0  0  0  0  0  0  0  0
   41.7110   26.8660  -12.4780 C   0  0  0  0  0  0  0  0  0  0  0  0
   41.6420   27.1610  -11.2880 O   0  0  0  0  0  0  0  0  0  0  0  0
   40.5740   27.1330  -13.3880 C   0  0  0  0  0  0  0  0  0  0  0  0
   39.4570   27.7340  -12.8360 O   0  0  0  0  0  0  0  0  0  0  0  0
   39.6420   26.3180  -16.8910 C   0  0  0  0  0  0  0  0  0  0  0  0
   38.6340   26.5080  -17.8410 C   0  0  0  0  0  0  0  0  0  0  0  0
   37.5870   27.4120  -17.6110 C   0  0  0  0  0  0  0  0  0  0  0  0
   36.5250   27.5760  -18.6640 C   0  0  0  0  0  0  0  0  0  0  0  0
   36.4774   28.5600  -13.9853 H   0  0  0  0  0  0  0  0  0  0  0  0
   37.3251   30.0995  -14.3568 H   0  0  0  0  0  0  0  0  0  0  0  0
   35.5298   30.0401  -14.3568 H   0  0  0  0  0  0  0  0  0  0  0  0
   35.4854   28.6788  -16.3325 H   0  0  0  0  0  0  0  0  0  0  0  0
   36.6527   30.0338  -16.6406 H   0  0  0  0  0  0  0  0  0  0  0  0
   38.5467   28.4761  -14.5020 H   0  0  0  0  0  0  0  0  0  0  0  0
   44.0154   25.1246  -16.0782 H   0  0  0  0  0  0  0  0  0  0  0  0
   46.0202   24.5911  -14.6901 H   0  0  0  0  0  0  0  0  0  0  0  0
   46.0255   25.1138  -12.2476 H   0  0  0  0  0  0  0  0  0  0  0  0
   44.2350   27.0840  -10.6360 H   0  0  0  0  0  0  0  0  0  0  0  0
   39.0230   27.3370  -12.1070 H   0  0  0  0  0  0  0  0  0  0  0  0
   40.4523   25.6020  -17.0930 H   0  0  0  0  0  0  0  0  0  0  0  0
   38.6627   25.9401  -18.7826 H   0  0  0  0  0  0  0  0  0  0  0  0
   35.5488   27.7267  -18.1799 H   0  0  0  0  0  0  0  0  0  0  0  0
   36.7619   28.4482  -19.2910 H   0  0  0  0  0  0  0  0  0  0  0  0
   36.4878   26.6730  -19.2910 H   0  0  0  0  0  0  0  0  0  0  0  0
  1  2  1  0
  2  3  1  0
  3  4  2  0
  4  5  1  0
  5  6  1  0
  6  7  1  0
  7  8  1  0
  8  9  2  0
  9 10  1  0
 10 11  2  0
 11 12  1  0
 12 13  1  0
 12 14  2  0
 14 15  1  0
 15 16  2  0
 15 17  1  0
 17 18  1  0
  5 19  2  0
 19 20  1  0
 20 21  2  0
 21 22  1  0
 21  3  1  0
 17  6  2  0
 14  8  1  0
  1 23  1  0
  1 24  1  0
  1 25  1  0
  2 26  1  0
  2 27  1  0
  4 28  1  0
  9 29  1  0
 10 30  1  0
 11 31  1  0
 13 32  1  0
 18 33  1  0
 19 34  1  0
 20 35  1  0
 22 36  1  0
 22 37  1  0
 22 38  1  0
M  END
>  <meeko>  (6) 
{"is_sidechain": [false], "free_energy": -6.728, "intermolecular_energy": -7.483, "internal_energy": 0.094}

$$$$
cand_028_out
     RDKit          3D

 38 40  0  0  0  0  0  0  0  0999 V2000
   45.3950   24.5800  -13.7730 C   0  0  0  0  0  0  0  0  0  0  0  0
   45.0310   26.0440  -13.9710 C   0  0  0  0  0  0  0  0  0  0  0  0
   43.6370   26.3520  -13.4740 C   0  0  0  0  0  0  0  0  0  0  0  0
   42.6250   26.5850  -14.4280 C   0  0  0  0  0  0  0  0  0  0  0  0
   41.3120   26.8960  -14.0490 C   0  0  0  0  0  0  0  0  0  0  0  0
   40.2440   27.1150  -15.0480 C   0  0  0  0  0  0  0  0  0  0  0  0
   39.2610   27.9920  -14.6030 O   0  0  0  0  0  0  0  0  0  0  0  0
   38.2080   28.2840  -15.4320 C   0  0  0  0  0  0  0  0  0  0  0  0
   37.2370   29.1560  -14.9390 C   0  0  0  0  0  0  0  0  0  0  0  0
   36.1390   29.4970  -15.7330 C   0  0  0  0  0  0  0  0  0  0  0  0
   36.0130   28.9660  -17.0190 C   0  0  0  0  0  0  0  0  0  0  0  0
   36.9840   28.0960  -17.5080 C   0  0  0  0  0  0  0  0  0  0  0  0
   36.8000   27.6130  -18.7750 O   0  0  0  0  0  0  0  0  0  0  0  0
   38.0820   27.7540  -16.7130 C   0  0  0  0  0  0  0  0  0  0  0  0
   39.1250   26.8430  -17.1890 C   0  0  0  0  0  0  0  0  0  0  0  0
   39.0880   26.3420  -18.3100 O   0  0  0  0  0  0  0  0  0  0  0  0
   40.2420   26.5410  -16.2650 C   0  0  0  0  0  0  0  0  0  0  0  0
   41.2280   25.6890  -16.7300 O   0  0  0  0  0  0  0  0  0  0  0  0
   41.0120   26.9580  -12.6840 C   0  0  0  0  0  0  0  0  0  0  0  0
   42.0040   26.7350  -11.7250 C   0  0  0  0  0  0  0  0  0  0  0  0
   43.3220   26.4410  -12.1050 C   0  0  0  0  0  0  0  0  0  0  0  0
   44.3510   26.2030  -11.0330 C   0  0  0  0  0  0  0  0  0  0  0  0
   45.4502   24.3582  -12.6970 H   0  0  0  0  0  0  0  0  0  0  0  0
   44.6274   23.9450  -14.2394 H   0  0  0  0  0  0  0  0  0  0  0  0
   46.3706   24.3784  -14.2394 H   0  0  0  0  0  0  0  0  0  0  0  0
   45.7506   26.6668  -13.4194 H   0  0  0  0  0  0  0  0  0  0  0  0
   45.0633   26.2598  -15.0491 H   0  0  0  0  0  0  0  0  0  0  0  0
   42.8726   26.5210  -15.4979 H   0  0  0  0  0  0  0  0  0  0  0  0
   37.3357   29.5745  -13.9265 H   0  0  0  0  0  0  0  0  0  0  0  0
   35.3729   30.1844  -15.3450 H   0  0  0  0  0  0  0  0  0  0  0  0
   35.1485   29.2346  -17.6440 H   0  0  0  0  0  0  0  0  0  0  0  0
   35.9570   27.2990  -19.0380 H   0  0  0  0  0  0  0  0  0  0  0  0
   41.2490   25.4470  -17.6350 H   0  0  0  0  0  0  0  0  0  0  0  0
   39.9848   27.1846  -12.3621 H   0  0  0  0  0  0  0  0  0  0  0  0
   41.7475   26.7908  -10.6568 H   0  0  0  0  0  0  0  0  0  0  0  0
   43.8819   26.3115  -10.0439 H   0  0  0  0  0  0  0  0  0  0  0  0
   44.7592   25.1867  -11.1357 H   0  0  0  0  0  0  0  0  0  0  0  0
   45.1640   26.9368  -11.1357 H   0  0  0  0  0  0  0  0  0  0  0  0
  1  2  1  0
  2  3  1  0
  3  4  2  0
  4  5  1  0
  5  6  1  0
  6  7  1  0
  7  8  1  0
  8  9  2  0
  9 10  1  0
 10 11  2  0
 11 12  1  0
 12 13  1  0
 12 14  2  0
 14 15  1  0
 15 16  2  0
 15 17  1  0
 17 18  1  0
  5 19  2  0
 19 20  1  0
 20 21  2  0
 21 22  1  0
 21  3  1  0
 17  6  2  0
 14  8  1  0
  1 23  1  0
  1 24  1  0
  1 25  1  0
  2 26  1  0
  2 27  1  0
  4 28  1  0
  9 29  1  0
 10 30  1  0
 11 31  1  0
 13 32  1  0
 18 33  1  0
 19 34  1  0
 20 35  1  0
 22 36  1  0
 22 37  1  0
 22 38  1  0
M  END
>  <meeko>  (7) 
{"is_sidechain": [false], "free_energy": -6.485, "intermolecular_energy": -7.305, "internal_energy": 0.203}

$$$$
cand_028_out
     RDKit          3D

 38 40  0  0  0  0  0  0  0  0999 V2000
   45.7660   25.3350  -14.2320 C   0  0  0  0  0  0  0  0  0  0  0  0
   44.3360   24.9530  -14.5840 C   0  0  0  0  0  0  0  0  0  0  0  0
   43.3260   25.7720  -13.8120 C   0  0  0  0  0  0  0  0  0  0  0  0
   42.1850   26.2400  -14.4940 C   0  0  0  0  0  0  0  0  0  0  0  0
   41.2130   27.0220  -13.8560 C   0  0  0  0  0  0  0  0  0  0  0  0
   40.0020   27.4910  -14.5630 C   0  0  0  0  0  0  0  0  0  0  0  0
   39.8270   26.8770  -15.7980 O   0  0  0  0  0  0  0  0  0  0  0  0
   38.7410   27.2220  -16.5620 C   0  0  0  0  0  0  0  0  0  0  0  0
   38.6130   26.5930  -17.8010 C   0  0  0  0  0  0  0  0  0  0  0  0
   37.5290   26.8960  -18.6280 C   0  0  0  0  0  0  0  0  0  0  0  0
   36.5730   27.8280  -18.2160 C   0  0  0  0  0  0  0  0  0  0  0  0
   36.7040   28.4530  -16.9790 C   0  0  0  0  0  0  0  0  0  0  0  0
   35.7320   29.3550  -16.6370 O   0  0  0  0  0  0  0  0  0  0  0  0
   37.7900   28.1500  -16.1520 C   0  0  0  0  0  0  0  0  0  0  0  0
   37.9640   28.7860  -14.8440 C   0  0  0  0  0  0  0  0  0  0  0  0
   37.1620   29.6090  -14.4100 O   0  0  0  0  0  0  0  0  0  0  0  0
   39.1520   28.4000  -14.0500 C   0  0  0  0  0  0  0  0  0  0  0  0
   39.3000   28.9970  -12.8110 O   0  0  0  0  0  0  0  0  0  0  0  0
   41.3890   27.3250  -12.5010 C   0  0  0  0  0  0  0  0  0  0  0  0
   42.5180   26.8740  -11.8110 C   0  0  0  0  0  0  0  0  0  0  0  0
   43.4990   26.1060  -12.4550 C   0  0  0  0  0  0  0  0  0  0  0  0
   44.6920   25.6410  -11.6650 C   0  0  0  0  0  0  0  0  0  0  0  0
   45.8788   25.3651  -13.1382 H   0  0  0  0  0  0  0  0  0  0  0  0
   46.4583   24.5903  -14.6516 H   0  0  0  0  0  0  0  0  0  0  0  0
   45.9947   26.3257  -14.6516 H   0  0  0  0  0  0  0  0  0  0  0  0
   44.1789   25.1174  -15.6602 H   0  0  0  0  0  0  0  0  0  0  0  0
   44.1910   23.8954  -14.3185 H   0  0  0  0  0  0  0  0  0  0  0  0
   42.0539   25.9845  -15.5559 H   0  0  0  0  0  0  0  0  0  0  0  0
   39.3652   25.8592  -18.1261 H   0  0  0  0  0  0  0  0  0  0  0  0
   37.4278   26.4003  -19.6048 H   0  0  0  0  0  0  0  0  0  0  0  0
   35.7193   28.0672  -18.8672 H   0  0  0  0  0  0  0  0  0  0  0  0
   35.7550   29.7710  -15.7970 H   0  0  0  0  0  0  0  0  0  0  0  0
   39.2190   29.9260  -12.7260 H   0  0  0  0  0  0  0  0  0  0  0  0
   40.6316   27.9238  -11.9739 H   0  0  0  0  0  0  0  0  0  0  0  0
   42.6388   27.1253  -10.7469 H   0  0  0  0  0  0  0  0  0  0  0  0
   44.4754   25.7254  -10.5899 H   0  0  0  0  0  0  0  0  0  0  0  0
   44.9103   24.5920  -11.9138 H   0  0  0  0  0  0  0  0  0  0  0  0
   45.5626   26.2656  -11.9138 H   0  0  0  0  0  0  0  0  0  0  0  0
  1  2  1  0
  2  3  1  0
  3  4  2  0
  4  5  1  0
  5  6  1  0
  6  7  1  0
  7  8  1  0
  8  9  2  0
  9 10  1  0
 10 11  2  0
 11 12  1  0
 12 13  1  0
 12 14  2  0
 14 15  1  0
 15 16  2  0
 15 17  1  0
 17 18  1  0
  5 19  2  0
 19 20  1  0
 20 21  2  0
 21 22  1  0
 21  3  1  0
 17  6  2  0
 14  8  1  0
  1 23  1  0
  1 24  1  0
  1 25  1  0
  2 26  1  0
  2 27  1  0
  4 28  1  0
  9 29  1  0
 10 30  1  0
 11 31  1  0
 13 32  1  0
 18 33  1  0
 19 34  1  0
 20 35  1  0
 22 36  1  0
 22 37  1  0
 22 38  1  0
M  END
>  <meeko>  (8) 
{"is_sidechain": [false], "free_energy": -6.363, "intermolecular_energy": -8.032, "internal_energy": 1.073}

$$$$
cand_028_out
     RDKit          3D

 38 40  0  0  0  0  0  0  0  0999 V2000
   47.5190   26.8490  -14.3710 C   0  0  0  0  0  0  0  0  0  0  0  0
   46.2700   27.1910  -13.5730 C   0  0  0  0  0  0  0  0  0  0  0  0
   45.1440   26.2180  -13.8420 C   0  0  0  0  0  0  0  0  0  0  0  0
   43.9080   26.7340  -14.2820 C   0  0  0  0  0  0  0  0  0  0  0  0
   42.8100   25.9010  -14.5340 C   0  0  0  0  0  0  0  0  0  0  0  0
   41.5210   26.4370  -15.0210 C   0  0  0  0  0  0  0  0  0  0  0  0
   40.8760   27.2300  -14.0790 O   0  0  0  0  0  0  0  0  0  0  0  0
   39.6660   27.7920  -14.4010 C   0  0  0  0  0  0  0  0  0  0  0  0
   39.0480   28.5680  -13.4200 C   0  0  0  0  0  0  0  0  0  0  0  0
   37.8150   29.1710  -13.6840 C   0  0  0  0  0  0  0  0  0  0  0  0
   37.2020   28.9970  -14.9270 C   0  0  0  0  0  0  0  0  0  0  0  0
   37.8230   28.2220  -15.9030 C   0  0  0  0  0  0  0  0  0  0  0  0
   37.1690   28.0940  -17.0980 O   0  0  0  0  0  0  0  0  0  0  0  0
   39.0550   27.6190  -15.6390 C   0  0  0  0  0  0  0  0  0  0  0  0
   39.7410   26.7960  -16.6380 C   0  0  0  0  0  0  0  0  0  0  0  0
   39.2700   26.6040  -17.7560 O   0  0  0  0  0  0  0  0  0  0  0  0
   41.0390   26.1960  -16.2540 C   0  0  0  0  0  0  0  0  0  0  0  0
   41.6840   25.4320  -17.2100 O   0  0  0  0  0  0  0  0  0  0  0  0
   42.9660   24.5220  -14.3520 C   0  0  0  0  0  0  0  0  0  0  0  0
   44.1830   23.9950  -13.9100 C   0  0  0  0  0  0  0  0  0  0  0  0
   45.2770   24.8310  -13.6420 C   0  0  0  0  0  0  0  0  0  0  0  0
   46.5660   24.2120  -13.1740 C   0  0  0  0  0  0  0  0  0  0  0  0
   48.3448   26.6229  -13.6804 H   0  0  0  0  0  0  0  0  0  0  0  0
   47.3205   25.9721  -15.0048 H   0  0  0  0  0  0  0  0  0  0  0  0
   47.7949   27.7047  -15.0048 H   0  0  0  0  0  0  0  0  0  0  0  0
   46.5147   27.1640  -12.5009 H   0  0  0  0  0  0  0  0  0  0  0  0
   45.9345   28.1931  -13.8784 H   0  0  0  0  0  0  0  0  0  0  0  0
   43.8029   27.8187  -14.4313 H   0  0  0  0  0  0  0  0  0  0  0  0
   39.5301   28.7050  -12.4408 H   0  0  0  0  0  0  0  0  0  0  0  0
   37.3266   29.7835  -12.9118 H   0  0  0  0  0  0  0  0  0  0  0  0
   36.2312   29.4710  -15.1343 H   0  0  0  0  0  0  0  0  0  0  0  0
   36.5250   28.7270  -17.3490 H   0  0  0  0  0  0  0  0  0  0  0  0
   42.3290   24.8040  -16.9520 H   0  0  0  0  0  0  0  0  0  0  0  0
   42.1229   23.8464  -14.5588 H   0  0  0  0  0  0  0  0  0  0  0  0
   44.2842   22.9086  -13.7703 H   0  0  0  0  0  0  0  0  0  0  0  0
   46.5893   24.2008  -12.0743 H   0  0  0  0  0  0  0  0  0  0  0  0
   46.6367   23.1817  -13.5528 H   0  0  0  0  0  0  0  0  0  0  0  0
   47.4143   24.8010  -13.5528 H   0  0  0  0  0  0  0  0  0  0  0  0
  1  2  1  0
  2  3  1  0
  3  4  2  0
  4  5  1  0
  5  6  1  0
  6  7  1  0
  7  8  1  0
  8  9  2  0
  9 10  1  0
 10 11  2  0
 11 12  1  0
 12 13  1  0
 12 14  2  0
 14 15  1  0
 15 16  2  0
 15 17  1  0
 17 18  1  0
  5 19  2  0
 19 20  1  0
 20 21  2  0
 21 22  1  0
 21  3  1  0
 17  6  2  0
 14  8  1  0
  1 23  1  0
  1 24  1  0
  1 25  1  0
  2 26  1  0
  2 27  1  0
  4 28  1  0
  9 29  1  0
 10 30  1  0
 11 31  1  0
 13 32  1  0
 18 33  1  0
 19 34  1  0
 20 35  1  0
 22 36  1  0
 22 37  1  0
 22 38  1  0
M  END
>  <meeko>  (9) 
{"is_sidechain": [false], "free_energy": -5.923, "intermolecular_energy": -6.572, "internal_energy": 0.13}

$$$$
