cand_016_out
     RDKit          3D

 35 37  0  0  0  0  0  0  0  0999 V2000
   45.5560   27.1690  -12.6980 C   0  0  0  0  0  0  0  0  0  0  0  0
   44.4680   26.4190  -13.4180 C   0  0  0  0  0  0  0  0  0  0  0  0
   43.2230   27.0450  -13.6110 C   0  0  0  0  0  0  0  0  0  0  0  0
   42.1730   26.4030  -14.2820 C   0  0  0  0  0  0  0  0  0  0  0  0
   40.8710   27.0660  -14.5050 C   0  0  0  0  0  0  0  0  0  0  0  0
   40.3610   26.8430  -15.7780 O   0  0  0  0  0  0  0  0  0  0  0  0
   39.1560   27.4020  -16.1170 C   0  0  0  0  0  0  0  0  0  0  0  0
   38.6880   27.1650  -17.4110 C   0  0  0  0  0  0  0  0  0  0  0  0
   37.4670   27.7050  -17.8200 C   0  0  0  0  0  0  0  0  0  0  0  0
   36.7140   28.4810  -16.9380 C   0  0  0  0  0  0  0  0  0  0  0  0
   37.1820   28.7160  -15.6470 C   0  0  0  0  0  0  0  0  0  0  0  0
   36.3940   29.4830  -14.8350 O   0  0  0  0  0  0  0  0  0  0  0  0
   38.4040   28.1760  -15.2380 C   0  0  0  0  0  0  0  0  0  0  0  0
   38.9330   28.3990  -13.8910 C   0  0  0  0  0  0  0  0  0  0  0  0
   38.3250   29.0640  -13.0550 O   0  0  0  0  0  0  0  0  0  0  0  0
   40.2420   27.7900  -13.5600 C   0  0  0  0  0  0  0  0  0  0  0  0
   40.7250   27.9950  -12.2820 O   0  0  0  0  0  0  0  0  0  0  0  0
   42.3940   25.1160  -14.7850 C   0  0  0  0  0  0  0  0  0  0  0  0
   43.6270   24.4830  -14.6100 C   0  0  0  0  0  0  0  0  0  0  0  0
   44.6790   25.1230  -13.9340 C   0  0  0  0  0  0  0  0  0  0  0  0
   45.9920   24.3970  -13.7530 C   0  0  0  0  0  0  0  0  0  0  0  0
   47.0170   24.9420  -14.4700 F   0  0  0  0  0  0  0  0  0  0  0  0
   46.4220   24.3830  -12.4610 F   0  0  0  0  0  0  0  0  0  0  0  0
   45.4126   27.0701  -11.6119 H   0  0  0  0  0  0  0  0  0  0  0  0
   46.5351   26.7531  -12.9779 H   0  0  0  0  0  0  0  0  0  0  0  0
   45.5156   28.2320  -12.9779 H   0  0  0  0  0  0  0  0  0  0  0  0
   43.0697   28.0638  -13.2257 H   0  0  0  0  0  0  0  0  0  0  0  0
   39.2805   26.5536  -18.1074 H   0  0  0  0  0  0  0  0  0  0  0  0
   37.0980   27.5183  -18.8393 H   0  0  0  0  0  0  0  0  0  0  0  0
   35.7526   28.9064  -17.2615 H   0  0  0  0  0  0  0  0  0  0  0  0
   35.7780   30.0830  -15.2080 H   0  0  0  0  0  0  0  0  0  0  0  0
   41.5140   28.4850  -12.1520 H   0  0  0  0  0  0  0  0  0  0  0  0
   41.5879   24.5970  -15.3242 H   0  0  0  0  0  0  0  0  0  0  0  0
   43.7763   23.4683  -15.0075 H   0  0  0  0  0  0  0  0  0  0  0  0
   45.7606   23.3817  -14.1074 H   0  0  0  0  0  0  0  0  0  0  0  0
  1  2  1  0
  2  3  2  0
  3  4  1  0
  4  5  1  0
  5  6  1  0
  6  7  1  0
  7  8  2  0
  8  9  1  0
  9 10  2  0
 10 11  1  0
 11 12  1  0
 11 13  2  0
 13 14  1  0
 14 15  2  0
 14 16  1  0
 16 17  1  0
  4 18  2  0
 18 19  1  0
 19 20  2  0
 20 21  1  0
 21 22  1  0
 21 23  1  0
 20  2  1  0
 16  5  2  0
 13  7  1  0
  1 24  1  0
  1 25  1  0
  1 26  1  0
  3 27  1  0
  8 28  1  0
  9 29  1  0
 10 30  1  0
 12 31  1  0
 17 32  1  0
 18 33  1  0
 19 34  1  0
 21 35  1  0
M  END
>  <meeko>  (1) 
{"is_sidechain": [false], "free_energy": -8.681, "intermolecular_energy": -10.204, "internal_energy": 0.008}

$$$$
cand_016_out
     RDKit          3D

 35 37  0  0  0  0  0  0  0  0999 V2000
   43.4980   26.8380  -11.6580 C   0  0  0  0  0  0  0  0  0  0  0  0
   43.1830   26.3140  -13.0330 C   0  0  0  0  0  0  0  0  0  0  0  0
   42.0070   26.7480  -13.6730 C   0  0  0  0  0  0  0  0  0  0  0  0
   41.6630   26.3030  -14.9580 C   0  0  0  0  0  0  0  0  0  0  0  0
   40.4390   26.7730  -15.6410 C   0  0  0  0  0  0  0  0  0  0  0  0
   39.6590   27.6020  -14.8430 O   0  0  0  0  0  0  0  0  0  0  0  0
   38.4930   28.1100  -15.3560 C   0  0  0  0  0  0  0  0  0  0  0  0
   37.7320   28.9240  -14.5150 C   0  0  0  0  0  0  0  0  0  0  0  0
   36.5340   29.4740  -14.9760 C   0  0  0  0  0  0  0  0  0  0  0  0
   36.0970   29.2110  -16.2750 C   0  0  0  0  0  0  0  0  0  0  0  0
   36.8570   28.3990  -17.1120 C   0  0  0  0  0  0  0  0  0  0  0  0
   36.3710   28.1830  -18.3720 O   0  0  0  0  0  0  0  0  0  0  0  0
   38.0560   27.8480  -16.6510 C   0  0  0  0  0  0  0  0  0  0  0  0
   38.8840   26.9880  -17.4980 C   0  0  0  0  0  0  0  0  0  0  0  0
   38.5710   26.7160  -18.6550 O   0  0  0  0  0  0  0  0  0  0  0  0
   40.1320   26.4470  -16.9110 C   0  0  0  0  0  0  0  0  0  0  0  0
   40.9150   25.6480  -17.7230 O   0  0  0  0  0  0  0  0  0  0  0  0
   42.5320   25.4250  -15.6130 C   0  0  0  0  0  0  0  0  0  0  0  0
   43.7080   24.9910  -14.9960 C   0  0  0  0  0  0  0  0  0  0  0  0
   44.0530   25.4310  -13.7070 C   0  0  0  0  0  0  0  0  0  0  0  0
   45.3270   24.9260  -13.0690 C   0  0  0  0  0  0  0  0  0  0  0  0
   45.8460   23.8280  -13.6900 F   0  0  0  0  0  0  0  0  0  0  0  0
   46.3280   25.8490  -13.0680 F   0  0  0  0  0  0  0  0  0  0  0  0
   43.0865   26.1535  -10.9016 H   0  0  0  0  0  0  0  0  0  0  0  0
   44.5886   26.9090  -11.5336 H   0  0  0  0  0  0  0  0  0  0  0  0
   43.0491   27.8345  -11.5336 H   0  0  0  0  0  0  0  0  0  0  0  0
   41.3417   27.4530  -13.1531 H   0  0  0  0  0  0  0  0  0  0  0  0
   38.0755   29.1318  -13.4909 H   0  0  0  0  0  0  0  0  0  0  0  0
   35.9338   30.1156  -14.3141 H   0  0  0  0  0  0  0  0  0  0  0  0
   35.1532   29.6448  -16.6370 H   0  0  0  0  0  0  0  0  0  0  0  0
   35.5360   27.7730  -18.4890 H   0  0  0  0  0  0  0  0  0  0  0  0
   41.8370   25.5810  -17.5670 H   0  0  0  0  0  0  0  0  0  0  0  0
   42.2870   25.0720  -16.6256 H   0  0  0  0  0  0  0  0  0  0  0  0
   44.3735   24.2946  -15.5272 H   0  0  0  0  0  0  0  0  0  0  0  0
   45.0081   24.6841  -12.0444 H   0  0  0  0  0  0  0  0  0  0  0  0
  1  2  1  0
  2  3  2  0
  3  4  1  0
  4  5  1  0
  5  6  1  0
  6  7  1  0
  7  8  2  0
  8  9  1  0
  9 10  2  0
 10 11  1  0
 11 12  1  0
 11 13  2  0
 13 14  1  0
 14 15  2  0
 14 16  1  0
 16 17  1  0
  4 18  2  0
 18 19  1  0
 19 20  2  0
 20 21  1  0
 21 22  1  0
 21 23  1  0
 20  2  1  0
 16  5  2  0
 13  7  1  0
  1 24  1  0
  1 25  1  0
  1 26  1  0
  3 27  1  0
  8 28  1  0
  9 29  1  0
 10 30  1  0
 12 31  1  0
 17 32  1  0
 18 33  1  0
 19 34  1  0
 21 35  1  0
M  END
>  <meeko>  (2) 
{"is_sidechain": [false], "free_energy": -8.436, "intermolecular_energy": -10.115, "internal_energy": 0.207}

$$$$
cand_016_out
     RDKit          3D

 35 37  0  0  0  0  0  0  0  0999 V2000
   37.3090   26.8150  -18.6640 C   0  0  0  0  0  0  0  0  0  0  0  0
   37.5950   27.6080  -17.4180 C   0  0  0  0  0  0  0  0  0  0  0  0
   38.6290   27.1830  -16.5630 C   0  0  0  0  0  0  0  0  0  0  0  0
   38.9500   27.8850  -15.3920 C   0  0  0  0  0  0  0  0  0  0  0  0
   40.0490   27.4520  -14.5030 C   0  0  0  0  0  0  0  0  0  0  0  0
   41.0680   26.7950  -15.1830 O   0  0  0  0  0  0  0  0  0  0  0  0
   42.1510   26.3410  -14.4760 C   0  0  0  0  0  0  0  0  0  0  0  0
   43.1430   25.6730  -15.1960 C   0  0  0  0  0  0  0  0  0  0  0  0
   44.2740   25.1850  -14.5370 C   0  0  0  0  0  0  0  0  0  0  0  0
   44.4120   25.3650  -13.1590 C   0  0  0  0  0  0  0  0  0  0  0  0
   43.4220   26.0310  -12.4430 C   0  0  0  0  0  0  0  0  0  0  0  0
   43.6220   26.1730  -11.0980 O   0  0  0  0  0  0  0  0  0  0  0  0
   42.2900   26.5190  -13.1030 C   0  0  0  0  0  0  0  0  0  0  0  0
   41.2250   27.2240  -12.3880 C   0  0  0  0  0  0  0  0  0  0  0  0
   41.2780   27.4280  -11.1770 O   0  0  0  0  0  0  0  0  0  0  0  0
   40.0640   27.6940  -13.1790 C   0  0  0  0  0  0  0  0  0  0  0  0
   39.0710   28.3700  -12.4970 O   0  0  0  0  0  0  0  0  0  0  0  0
   38.2300   29.0460  -15.0940 C   0  0  0  0  0  0  0  0  0  0  0  0
   37.2060   29.4870  -15.9370 C   0  0  0  0  0  0  0  0  0  0  0  0
   36.8800   28.7840  -17.1080 C   0  0  0  0  0  0  0  0  0  0  0  0
   35.7550   29.2870  -17.9840 C   0  0  0  0  0  0  0  0  0  0  0  0
   35.3850   28.4010  -18.9540 F   0  0  0  0  0  0  0  0  0  0  0  0
   34.6160   29.5600  -17.2890 F   0  0  0  0  0  0  0  0  0  0  0  0
   36.9479   25.8137  -18.3865 H   0  0  0  0  0  0  0  0  0  0  0  0
   36.5401   27.3304  -19.2583 H   0  0  0  0  0  0  0  0  0  0  0  0
   38.2299   26.7210  -19.2583 H   0  0  0  0  0  0  0  0  0  0  0  0
   39.1994   26.2781  -16.8195 H   0  0  0  0  0  0  0  0  0  0  0  0
   43.0342   25.5310  -16.2814 H   0  0  0  0  0  0  0  0  0  0  0  0
   45.0562   24.6587  -15.1037 H   0  0  0  0  0  0  0  0  0  0  0  0
   45.3025   24.9806  -12.6401 H   0  0  0  0  0  0  0  0  0  0  0  0
   43.5280   25.4340  -10.5290 H   0  0  0  0  0  0  0  0  0  0  0  0
   38.3570   28.7540  -12.9680 H   0  0  0  0  0  0  0  0  0  0  0  0
   38.4720   29.6184  -14.1864 H   0  0  0  0  0  0  0  0  0  0  0  0
   36.6470   30.3986  -15.6792 H   0  0  0  0  0  0  0  0  0  0  0  0
   36.1796   30.2000  -18.4268 H   0  0  0  0  0  0  0  0  0  0  0  0
  1  2  1  0
  2  3  2  0
  3  4  1  0
  4  5  1  0
  5  6  1  0
  6  7  1  0
  7  8  2  0
  8  9  1  0
  9 10  2  0
 10 11  1  0
 11 12  1  0
 11 13  2  0
 13 14  1  0
 14 15  2  0
 14 16  1  0
 16 17  1  0
  4 18  2  0
 18 19  1  0
 19 20  2  0
 20 21  1  0
 21 22  1  0
 21 23  1  0
 20  2  1  0
 16  5  2  0
 13  7  1  0
  1 24  1  0
  1 25  1  0
  1 26  1  0
  3 27  1  0
  8 28  1  0
  9 29  1  0
 10 30  1  0
 12 31  1  0
 17 32  1  0
 18 33  1  0
 19 34  1  0
 21 35  1  0
M  END
>  <meeko>  (3) 
{"is_sidechain": [false], "free_energy": -7.67, "intermolecular_energy": -9.695, "internal_energy": 0.687}

$$$$
cand_016_out
     RDKit          3D

 35 37  0  0  0  0  0  0  0  0999 V2000
   36.2490   26.9150  -19.6390 C   0  0  0  0  0  0  0  0  0  0  0  0
   36.6730   27.6090  -18.3730 C   0  0  0  0  0  0  0  0  0  0  0  0
   37.8130   27.1430  -17.6910 C   0  0  0  0  0  0  0  0  0  0  0  0
   38.2640   27.7520  -16.5120 C   0  0  0  0  0  0  0  0  0  0  0  0
   39.4730   27.2770  -15.8050 C   0  0  0  0  0  0  0  0  0  0  0  0
   39.4590   27.5800  -14.4480 O   0  0  0  0  0  0  0  0  0  0  0  0
   40.5220   27.1950  -13.6730 C   0  0  0  0  0  0  0  0  0  0  0  0
   40.4750   27.5330  -12.3190 C   0  0  0  0  0  0  0  0  0  0  0  0
   41.5260   27.1700  -11.4730 C   0  0  0  0  0  0  0  0  0  0  0  0
   42.6220   26.4690  -11.9800 C   0  0  0  0  0  0  0  0  0  0  0  0
   42.6670   26.1330  -13.3300 C   0  0  0  0  0  0  0  0  0  0  0  0
   43.7690   25.4470  -13.7590 O   0  0  0  0  0  0  0  0  0  0  0  0
   41.6160   26.4970  -14.1770 C   0  0  0  0  0  0  0  0  0  0  0  0
   41.6240   26.1640  -15.6020 C   0  0  0  0  0  0  0  0  0  0  0  0
   42.5500   25.5430  -16.1210 O   0  0  0  0  0  0  0  0  0  0  0  0
   40.4660   26.6030  -16.4140 C   0  0  0  0  0  0  0  0  0  0  0  0
   40.4770   26.2720  -17.7560 O   0  0  0  0  0  0  0  0  0  0  0  0
   37.5660   28.8630  -16.0280 C   0  0  0  0  0  0  0  0  0  0  0  0
   36.4390   29.3450  -16.6980 C   0  0  0  0  0  0  0  0  0  0  0  0
   35.9820   28.7330  -17.8770 C   0  0  0  0  0  0  0  0  0  0  0  0
   34.7480   29.2760  -18.5620 C   0  0  0  0  0  0  0  0  0  0  0  0
   34.8040   30.6200  -18.7940 F   0  0  0  0  0  0  0  0  0  0  0  0
   34.5180   28.7090  -19.7780 F   0  0  0  0  0  0  0  0  0  0  0  0
   35.6908   26.0013  -19.3870 H   0  0  0  0  0  0  0  0  0  0  0  0
   35.6067   27.5864  -20.2278 H   0  0  0  0  0  0  0  0  0  0  0  0
   37.1396   26.6499  -20.2278 H   0  0  0  0  0  0  0  0  0  0  0  0
   38.3633   26.2797  -18.0933 H   0  0  0  0  0  0  0  0  0  0  0  0
   39.6114   28.0845  -11.9188 H   0  0  0  0  0  0  0  0  0  0  0  0
   41.4900   27.4367  -10.4064 H   0  0  0  0  0  0  0  0  0  0  0  0
   43.4488   26.1827  -11.3134 H   0  0  0  0  0  0  0  0  0  0  0  0
   43.6720   24.7230  -14.3470 H   0  0  0  0  0  0  0  0  0  0  0  0
   40.8650   26.8550  -18.3800 H   0  0  0  0  0  0  0  0  0  0  0  0
   37.9082   29.3627  -15.1097 H   0  0  0  0  0  0  0  0  0  0  0  0
   35.9014   30.2167  -16.2965 H   0  0  0  0  0  0  0  0  0  0  0  0
   33.9455   29.0322  -17.8503 H   0  0  0  0  0  0  0  0  0  0  0  0
  1  2  1  0
  2  3  2  0
  3  4  1  0
  4  5  1  0
  5  6  1  0
  6  7  1  0
  7  8  2  0
  8  9  1  0
  9 10  2  0
 10 11  1  0
 11 12  1  0
 11 13  2  0
 13 14  1  0
 14 15  2  0
 14 16  1  0
 16 17  1  0
  4 18  2  0
 18 19  1  0
 19 20  2  0
 20 21  1  0
 21 22  1  0
 21 23  1  0
 20  2  1  0
 16  5  2  0
 13  7  1  0
  1 24  1  0
  1 25  1  0
  1 26  1  0
  3 27  1  0
  8 28  1  0
  9 29  1  0
 10 30  1  0
 12 31  1  0
 17 32  1  0
 18 33  1  0
 19 34  1  0
 21 35  1  0
M  END
>  <meeko>  (4) 
{"is_sidechain": [false], "free_energy": -6.207, "intermolecular_energy": -8.009, "internal_energy": 0.72}

$$$$
cand_016_out
     RDKit          3D

 35 37  0  0  0  0  0  0  0  0999 V2000
   44.6320   24.9670  -14.9680 C   0  0  0  0  0  0  0  0  0  0  0  0
   43.6800   25.7750  -14.1280 C   0  0  0  0  0  0  0  0  0  0  0  0
   42.4860   26.2390  -14.7110 C   0  0  0  0  0  0  0  0  0  0  0  0
   41.5540   26.9880  -13.9790 C   0  0  0  0  0  0  0  0  0  0  0  0
   40.2890   27.4600  -14.5820 C   0  0  0  0  0  0  0  0  0  0  0  0
   40.0380   26.8910  -15.8250 O   0  0  0  0  0  0  0  0  0  0  0  0
   38.8950   27.2420  -16.4960 C   0  0  0  0  0  0  0  0  0  0  0  0
   38.6900   26.6590  -17.7470 C   0  0  0  0  0  0  0  0  0  0  0  0
   37.5450   26.9740  -18.4840 C   0  0  0  0  0  0  0  0  0  0  0  0
   36.6070   27.8690  -17.9690 C   0  0  0  0  0  0  0  0  0  0  0  0
   36.8130   28.4500  -16.7200 C   0  0  0  0  0  0  0  0  0  0  0  0
   35.8530   29.3170  -16.2760 O   0  0  0  0  0  0  0  0  0  0  0  0
   37.9590   28.1350  -15.9840 C   0  0  0  0  0  0  0  0  0  0  0  0
   38.2140   28.7240  -14.6680 C   0  0  0  0  0  0  0  0  0  0  0  0
   37.4320   29.5140  -14.1440 O   0  0  0  0  0  0  0  0  0  0  0  0
   39.4630   28.3320  -13.9740 C   0  0  0  0  0  0  0  0  0  0  0  0
   39.6880   28.8810  -12.7260 O   0  0  0  0  0  0  0  0  0  0  0  0
   41.8230   27.2520  -12.6320 C   0  0  0  0  0  0  0  0  0  0  0  0
   42.9990   26.7900  -12.0350 C   0  0  0  0  0  0  0  0  0  0  0  0
   43.9370   26.0430  -12.7680 C   0  0  0  0  0  0  0  0  0  0  0  0
   45.2040   25.5760  -12.0890 C   0  0  0  0  0  0  0  0  0  0  0  0
   45.4570   24.2470  -12.2680 F   0  0  0  0  0  0  0  0  0  0  0  0
   46.3180   26.2200  -12.5330 F   0  0  0  0  0  0  0  0  0  0  0  0
   45.3053   24.3956  -14.3122 H   0  0  0  0  0  0  0  0  0  0  0  0
   44.0621   24.2727  -15.6029 H   0  0  0  0  0  0  0  0  0  0  0  0
   45.2245   25.6422  -15.6029 H   0  0  0  0  0  0  0  0  0  0  0  0
   42.2791   26.0084  -15.7665 H   0  0  0  0  0  0  0  0  0  0  0  0
   39.4288   25.9522  -18.1528 H   0  0  0  0  0  0  0  0  0  0  0  0
   37.3833   26.5158  -19.4709 H   0  0  0  0  0  0  0  0  0  0  0  0
   35.7054   28.1157  -18.5489 H   0  0  0  0  0  0  0  0  0  0  0  0
   35.9140   30.2290  -16.4830 H   0  0  0  0  0  0  0  0  0  0  0  0
   39.8680   29.7980  -12.6430 H   0  0  0  0  0  0  0  0  0  0  0  0
   41.1010   27.8296  -12.0361 H   0  0  0  0  0  0  0  0  0  0  0  0
   43.1934   27.0143  -10.9758 H   0  0  0  0  0  0  0  0  0  0  0  0
   45.0106   25.8001  -11.0296 H   0  0  0  0  0  0  0  0  0  0  0  0
  1  2  1  0
  2  3  2  0
  3  4  1  0
  4  5  1  0
  5  6  1  0
  6  7  1  0
  7  8  2  0
  8  9  1  0
  9 10  2  0
 10 11  1  0
 11 12  1  0
 11 13  2  0
 13 14  1  0
 14 15  2  0
 14 16  1  0
 16 17  1  0
  4 18  2  0
 18 19  1  0
 19 20  2  0
 20 21  1  0
 21 22  1  0
 21 23  1  0
 20  2  1  0
 16  5  2  0
 13  7  1  0
  1 24  1  0
  1 25  1  0
  1 26  1  0
  3 27  1  0
  8 28  1  0
  9 29  1  0
 10 30  1  0
 12 31  1  0
 17 32  1  0
 18 33  1  0
 19 34  1  0
 21 35  1  0
M  END
>  <meeko>  (5) 
{"is_sidechain": [false], "free_energy": -6.146, "intermolecular_energy": -7.594, "internal_energy": 0.378}

$$$$
cand_016_out
     RDKit          3D

 35 37  0  0  0  0  0  0  0  0999 V2000
   36.2290   29.3670  -15.7180 C   0  0  0  0  0  0  0  0  0  0  0  0
   37.2890   28.3790  -16.1230 C   0  0  0  0  0  0  0  0  0  0  0  0
   38.3630   28.1370  -15.2460 C   0  0  0  0  0  0  0  0  0  0  0  0
   39.3770   27.2220  -15.5610 C   0  0  0  0  0  0  0  0  0  0  0  0
   40.4950   26.9500  -14.6320 C   0  0  0  0  0  0  0  0  0  0  0  0
   41.5840   26.3520  -15.2560 O   0  0  0  0  0  0  0  0  0  0  0  0
   42.6910   26.0460  -14.5080 C   0  0  0  0  0  0  0  0  0  0  0  0
   43.7540   25.4310  -15.1710 C   0  0  0  0  0  0  0  0  0  0  0  0
   44.9130   25.0940  -14.4680 C   0  0  0  0  0  0  0  0  0  0  0  0
   45.0080   25.3710  -13.1030 C   0  0  0  0  0  0  0  0  0  0  0  0
   43.9470   25.9840  -12.4430 C   0  0  0  0  0  0  0  0  0  0  0  0
   44.1070   26.2270  -11.1070 O   0  0  0  0  0  0  0  0  0  0  0  0
   42.7870   26.3210  -13.1470 C   0  0  0  0  0  0  0  0  0  0  0  0
   41.6480   26.9660  -12.4920 C   0  0  0  0  0  0  0  0  0  0  0  0
   41.6590   27.2490  -11.2960 O   0  0  0  0  0  0  0  0  0  0  0  0
   40.4630   27.2740  -13.3250 C   0  0  0  0  0  0  0  0  0  0  0  0
   39.3980   27.8950  -12.7010 O   0  0  0  0  0  0  0  0  0  0  0  0
   39.2920   26.5250  -16.7700 C   0  0  0  0  0  0  0  0  0  0  0  0
   38.2280   26.7460  -17.6480 C   0  0  0  0  0  0  0  0  0  0  0  0
   37.2130   27.6660  -17.3370 C   0  0  0  0  0  0  0  0  0  0  0  0
   36.0880   27.8870  -18.3220 C   0  0  0  0  0  0  0  0  0  0  0  0
   35.9120   29.1970  -18.6600 F   0  0  0  0  0  0  0  0  0  0  0  0
   36.2710   27.2300  -19.5000 F   0  0  0  0  0  0  0  0  0  0  0  0
   36.1749   29.4174  -14.6205 H   0  0  0  0  0  0  0  0  0  0  0  0
   36.4810   30.3600  -16.1187 H   0  0  0  0  0  0  0  0  0  0  0  0
   35.2562   29.0459  -16.1187 H   0  0  0  0  0  0  0  0  0  0  0  0
   38.4077   28.6792  -14.2900 H   0  0  0  0  0  0  0  0  0  0  0  0
   43.6792   25.2118  -16.2463 H   0  0  0  0  0  0  0  0  0  0  0  0
   45.7514   24.6100  -14.9903 H   0  0  0  0  0  0  0  0  0  0  0  0
   45.9207   25.1050  -12.5496 H   0  0  0  0  0  0  0  0  0  0  0  0
   44.2270   27.1050  -10.8010 H   0  0  0  0  0  0  0  0  0  0  0  0
   38.8240   27.4000  -12.1490 H   0  0  0  0  0  0  0  0  0  0  0  0
   40.0714   25.7946  -17.0328 H   0  0  0  0  0  0  0  0  0  0  0  0
   38.1844   26.1914  -18.5969 H   0  0  0  0  0  0  0  0  0  0  0  0
   35.2113   27.4996  -17.7823 H   0  0  0  0  0  0  0  0  0  0  0  0
  1  2  1  0
  2  3  2  0
  3  4  1  0
  4  5  1  0
  5  6  1  0
  6  7  1  0
  7  8  2  0
  8  9  1  0
  9 10  2  0
 10 11  1  0
 11 12  1  0
 11 13  2  0
 13 14  1  0
 14 15  2  0
 14 16  1  0
 16 17  1  0
  4 18  2  0
 18 19  1  0
 19 20  2  0
 20 21  1  0
 21 22  1  0
 21 23  1  0
 20  2  1  0
 16  5  2  0
 13  7  1  0
  1 24  1  0
  1 25  1  0
  1 26  1  0
  3 27  1  0
  8 28  1  0
  9 29  1  0
 10 30  1  0
 12 31  1  0
 17 32  1  0
 18 33  1  0
 19 34  1  0
 21 35  1  0
M  END
>  <meeko>  (6) 
{"is_sidechain": [false], "free_energy": -6.069, "intermolecular_energy": -7.374, "internal_energy": 0.248}

$$$$
cand_016_out
     RDKit          3D

 35 37  0  0  0  0  0  0  0  0999 V2000
   44.1420   23.1530  -13.8780 C   0  0  0  0  0  0  0  0  0  0  0  0
   43.9590   24.6470  -13.8830 C   0  0  0  0  0  0  0  0  0  0  0  0
   42.6860   25.1750  -14.1680 C   0  0  0  0  0  0  0  0  0  0  0  0
   42.4490   26.5570  -14.1780 C   0  0  0  0  0  0  0  0  0  0  0  0
   41.1080   27.1140  -14.4570 C   0  0  0  0  0  0  0  0  0  0  0  0
   40.6470   26.8020  -15.7310 O   0  0  0  0  0  0  0  0  0  0  0  0
   39.4140   27.2570  -16.1190 C   0  0  0  0  0  0  0  0  0  0  0  0
   38.9970   26.9340  -17.4120 C   0  0  0  0  0  0  0  0  0  0  0  0
   37.7500   27.3660  -17.8700 C   0  0  0  0  0  0  0  0  0  0  0  0
   36.9210   28.1190  -17.0380 C   0  0  0  0  0  0  0  0  0  0  0  0
   37.3390   28.4410  -15.7490 C   0  0  0  0  0  0  0  0  0  0  0  0
   36.4770   29.1800  -14.9870 O   0  0  0  0  0  0  0  0  0  0  0  0
   38.5870   28.0090  -15.2900 C   0  0  0  0  0  0  0  0  0  0  0  0
   39.0640   28.3250  -13.9430 C   0  0  0  0  0  0  0  0  0  0  0  0
   38.3890   28.9770  -13.1490 O   0  0  0  0  0  0  0  0  0  0  0  0
   40.4050   27.8270  -13.5570 C   0  0  0  0  0  0  0  0  0  0  0  0
   40.8400   28.1190  -12.2790 O   0  0  0  0  0  0  0  0  0  0  0  0
   43.5100   27.4160  -13.8730 C   0  0  0  0  0  0  0  0  0  0  0  0
   44.7770   26.9080  -13.5780 C   0  0  0  0  0  0  0  0  0  0  0  0
   45.0180   25.5240  -13.5720 C   0  0  0  0  0  0  0  0  0  0  0  0
   46.4090   25.0170  -13.2630 C   0  0  0  0  0  0  0  0  0  0  0  0
   46.9460   24.2620  -14.2650 F   0  0  0  0  0  0  0  0  0  0  0  0
   47.3070   26.0160  -13.0420 F   0  0  0  0  0  0  0  0  0  0  0  0
   44.1862   22.7925  -12.8397 H   0  0  0  0  0  0  0  0  0  0  0  0
   43.2953   22.6781  -14.3953 H   0  0  0  0  0  0  0  0  0  0  0  0
   45.0783   22.8965  -14.3953 H   0  0  0  0  0  0  0  0  0  0  0  0
   41.8567   24.4868  -14.3883 H   0  0  0  0  0  0  0  0  0  0  0  0
   39.6496   26.3402  -18.0690 H   0  0  0  0  0  0  0  0  0  0  0  0
   37.4211   27.1120  -18.8885 H   0  0  0  0  0  0  0  0  0  0  0  0
   35.9389   28.4578  -17.3994 H   0  0  0  0  0  0  0  0  0  0  0  0
   36.4350   29.0440  -14.0600 H   0  0  0  0  0  0  0  0  0  0  0  0
   40.9470   29.0110  -12.0120 H   0  0  0  0  0  0  0  0  0  0  0  0
   43.3446   28.5035  -13.8654 H   0  0  0  0  0  0  0  0  0  0  0  0
   45.5986   27.6020  -13.3469 H   0  0  0  0  0  0  0  0  0  0  0  0
   46.2531   24.4143  -12.3561 H   0  0  0  0  0  0  0  0  0  0  0  0
  1  2  1  0
  2  3  2  0
  3  4  1  0
  4  5  1  0
  5  6  1  0
  6  7  1  0
  7  8  2  0
  8  9  1  0
  9 10  2  0
 10 11  1  0
 11 12  1  0
 11 13  2  0
 13 14  1  0
 14 15  2  0
 14 16  1  0
 16 17  1  0
  4 18  2  0
 18 19  1  0
 19 20  2  0
 20 21  1  0
 21 22  1  0
 21 23  1  0
 20  2  1  0
 16  5  2  0
 13  7  1  0
  1 24  1  0
  1 25  1  0
  1 26  1  0
  3 27  1  0
  8 28  1  0
  9 29  1  0
 10 30  1  0
 12 31  1  0
 17 32  1  0
 18 33  1  0
 19 34  1  0
 21 35  1  0
M  END
>  <meeko>  (7) 
{"is_sidechain": [false], "free_energy": -5.95, "intermolecular_energy": -6.741, "internal_energy": -0.245}

$$$$
