cand_030_out
     RDKit          3D

 38 40  0  0  0  0  0  0  0  0999 V2000
   46.6600   24.6780  -14.0410 C   0  0  0  0  0  0  0  0  0  0  0  0
   45.4490   24.5150  -13.1360 C   0  0  0  0  0  0  0  0  0  0  0  0
   44.2000   25.1160  -13.7440 C   0  0  0  0  0  0  0  0  0  0  0  0
   43.4410   24.3220  -14.6210 C   0  0  0  0  0  0  0  0  0  0  0  0
   42.2820   24.8170  -15.2220 C   0  0  0  0  0  0  0  0  0  0  0  0
   41.8440   26.1190  -14.9600 C   0  0  0  0  0  0  0  0  0  0  0  0
   40.6250   26.6320  -15.6180 C   0  0  0  0  0  0  0  0  0  0  0  0
   39.8650   27.4500  -14.7900 O   0  0  0  0  0  0  0  0  0  0  0  0
   38.7030   27.9910  -15.2790 C   0  0  0  0  0  0  0  0  0  0  0  0
   37.9620   28.7910  -14.4080 C   0  0  0  0  0  0  0  0  0  0  0  0
   36.7700   29.3740  -14.8440 C   0  0  0  0  0  0  0  0  0  0  0  0
   36.3200   29.1580  -16.1480 C   0  0  0  0  0  0  0  0  0  0  0  0
   37.0610   28.3590  -17.0150 C   0  0  0  0  0  0  0  0  0  0  0  0
   36.5630   28.1900  -18.2770 O   0  0  0  0  0  0  0  0  0  0  0  0
   38.2530   27.7750  -16.5780 C   0  0  0  0  0  0  0  0  0  0  0  0
   39.0630   26.9280  -17.4570 C   0  0  0  0  0  0  0  0  0  0  0  0
   38.7380   26.6970  -18.6190 O   0  0  0  0  0  0  0  0  0  0  0  0
   40.3050   26.3500  -16.8950 C   0  0  0  0  0  0  0  0  0  0  0  0
   41.0710   25.5620  -17.7340 O   0  0  0  0  0  0  0  0  0  0  0  0
   42.6080   26.9190  -14.0990 C   0  0  0  0  0  0  0  0  0  0  0  0
   43.7850   26.4390  -13.4880 C   0  0  0  0  0  0  0  0  0  0  0  0
   44.5370   27.3530  -12.5460 C   0  0  0  0  0  0  0  0  0  0  0  0
   45.8890   27.2740  -12.6860 F   0  0  0  0  0  0  0  0  0  0  0  0
   44.2360   28.6740  -12.7120 F   0  0  0  0  0  0  0  0  0  0  0  0
   47.5637   24.7996  -13.4258 H   0  0  0  0  0  0  0  0  0  0  0  0
   46.7660   23.7860  -14.6759 H   0  0  0  0  0  0  0  0  0  0  0  0
   46.5263   25.5663  -14.6759 H   0  0  0  0  0  0  0  0  0  0  0  0
   45.2781   23.4424  -12.9617 H   0  0  0  0  0  0  0  0  0  0  0  0
   45.6559   25.0440  -12.1940 H   0  0  0  0  0  0  0  0  0  0  0  0
   43.7655   23.2935  -14.8375 H   0  0  0  0  0  0  0  0  0  0  0  0
   41.7080   24.1768  -15.9081 H   0  0  0  0  0  0  0  0  0  0  0  0
   38.3159   28.9620  -13.3806 H   0  0  0  0  0  0  0  0  0  0  0  0
   36.1846   30.0046  -14.1587 H   0  0  0  0  0  0  0  0  0  0  0  0
   35.3813   29.6184  -16.4900 H   0  0  0  0  0  0  0  0  0  0  0  0
   35.7240   27.7930  -18.4000 H   0  0  0  0  0  0  0  0  0  0  0  0
   40.6580   25.0570  -18.4070 H   0  0  0  0  0  0  0  0  0  0  0  0
   42.2807   27.9490  -13.8944 H   0  0  0  0  0  0  0  0  0  0  0  0
   44.2154   26.9961  -11.5565 H   0  0  0  0  0  0  0  0  0  0  0  0
  1  2  1  0
  2  3  1  0
  3  4  2  0
  4  5  1  0
  5  6  2  0
  6  7  1  0
  7  8  1  0
  8  9  1  0
  9 10  2  0
 10 11  1  0
 11 12  2  0
 12 13  1  0
 13 14  1  0
 13 15  2  0
 15 16  1  0
 16 17  2  0
 16 18  1  0
 18 19  1  0
  6 20  1  0
 20 21  2  0
 21 22  1  0
 22 23  1  0
 22 24  1  0
 21  3  1  0
 18  7  2  0
 15  9  1  0
  1 25  1  0
  1 26  1  0
  1 27  1  0
  2 28  1  0
  2 29  1  0
  4 30  1  0
  5 31  1  0
 10 32  1  0
 11 33  1  0
 12 34  1  0
 14 35  1  0
 19 36  1  0
 20 37  1  0
 22 38  1  0
M  END
>  <meeko>  (1) 
{"is_sidechain": [false], "free_energy": -8.048, "intermolecular_energy": -9.93, "internal_energy": 0.124}

$$$$
cand_030_out
     RDKit          3D

 38 40  0  0  0  0  0  0  0  0999 V2000
   46.4900   25.4160  -13.8460 C   0  0  0  0  0  0  0  0  0  0  0  0
   45.2550   24.8160  -13.1910 C   0  0  0  0  0  0  0  0  0  0  0  0
   43.9740   25.3450  -13.8000 C   0  0  0  0  0  0  0  0  0  0  0  0
   43.6460   24.9440  -15.1060 C   0  0  0  0  0  0  0  0  0  0  0  0
   42.4820   25.4000  -15.7290 C   0  0  0  0  0  0  0  0  0  0  0  0
   41.6100   26.2670  -15.0640 C   0  0  0  0  0  0  0  0  0  0  0  0
   40.3940   26.7540  -15.7450 C   0  0  0  0  0  0  0  0  0  0  0  0
   39.6100   27.5710  -14.9380 O   0  0  0  0  0  0  0  0  0  0  0  0
   38.4470   28.0880  -15.4500 C   0  0  0  0  0  0  0  0  0  0  0  0
   37.6830   28.8880  -14.6000 C   0  0  0  0  0  0  0  0  0  0  0  0
   36.4890   29.4480  -15.0590 C   0  0  0  0  0  0  0  0  0  0  0  0
   36.0590   29.2090  -16.3670 C   0  0  0  0  0  0  0  0  0  0  0  0
   36.8250   28.4100  -17.2130 C   0  0  0  0  0  0  0  0  0  0  0  0
   36.3470   28.2170  -18.4790 O   0  0  0  0  0  0  0  0  0  0  0  0
   38.0190   27.8490  -16.7520 C   0  0  0  0  0  0  0  0  0  0  0  0
   38.8530   27.0030  -17.6080 C   0  0  0  0  0  0  0  0  0  0  0  0
   38.5480   26.7520  -18.7720 O   0  0  0  0  0  0  0  0  0  0  0  0
   40.0960   26.4510  -17.0220 C   0  0  0  0  0  0  0  0  0  0  0  0
   40.8840   25.6640  -17.8410 O   0  0  0  0  0  0  0  0  0  0  0  0
   41.9450   26.6830  -13.7670 C   0  0  0  0  0  0  0  0  0  0  0  0
   43.1180   26.2380  -13.1230 C   0  0  0  0  0  0  0  0  0  0  0  0
   43.3910   26.7070  -11.7110 C   0  0  0  0  0  0  0  0  0  0  0  0
   42.2570   26.9540  -10.9990 F   0  0  0  0  0  0  0  0  0  0  0  0
   44.0940   25.8060  -10.9650 F   0  0  0  0  0  0  0  0  0  0  0  0
   47.1893   25.7557  -13.0678 H   0  0  0  0  0  0  0  0  0  0  0  0
   46.9793   24.6552  -14.4719 H   0  0  0  0  0  0  0  0  0  0  0  0
   46.1944   26.2709  -14.4719 H   0  0  0  0  0  0  0  0  0  0  0  0
   45.2825   23.7235  -13.3160 H   0  0  0  0  0  0  0  0  0  0  0  0
   45.2655   25.0962  -12.1273 H   0  0  0  0  0  0  0  0  0  0  0  0
   44.3167   24.2599  -15.6466 H   0  0  0  0  0  0  0  0  0  0  0  0
   42.2491   25.0736  -16.7533 H   0  0  0  0  0  0  0  0  0  0  0  0
   38.0205   29.0773  -13.5703 H   0  0  0  0  0  0  0  0  0  0  0  0
   35.8856   30.0786  -14.3895 H   0  0  0  0  0  0  0  0  0  0  0  0
   35.1183   29.6505  -16.7276 H   0  0  0  0  0  0  0  0  0  0  0  0
   36.0110   28.9420  -18.9690 H   0  0  0  0  0  0  0  0  0  0  0  0
   40.7100   25.6240  -18.7610 H   0  0  0  0  0  0  0  0  0  0  0  0
   41.2741   27.3755  -13.2375 H   0  0  0  0  0  0  0  0  0  0  0  0
   43.9722   27.6273  -11.8698 H   0  0  0  0  0  0  0  0  0  0  0  0
  1  2  1  0
  2  3  1  0
  3  4  2  0
  4  5  1  0
  5  6  2  0
  6  7  1  0
  7  8  1  0
  8  9  1  0
  9 10  2  0
 10 11  1  0
 11 12  2  0
 12 13  1  0
 13 14  1  0
 13 15  2  0
 15 16  1  0
 16 17  2  0
 16 18  1  0
 18 19  1  0
  6 20  1  0
 20 21  2  0
 21 22  1  0
 22 23  1  0
 22 24  1  0
 21  3  1  0
 18  7  2  0
 15  9  1  0
  1 25  1  0
  1 26  1  0
  1 27  1  0
  2 28  1  0
  2 29  1  0
  4 30  1  0
  5 31  1  0
 10 32  1  0
 11 33  1  0
 12 34  1  0
 14 35  1  0
 19 36  1  0
 20 37  1  0
 22 38  1  0
M  END
>  <meeko>  (2) 
{"is_sidechain": [false], "free_energy": -7.765, "intermolecular_energy": -9.892, "internal_energy": 0.436}

$$$$
cand_030_out
     RDKit          3D

 38 40  0  0  0  0  0  0  0  0999 V2000
   46.9920   24.7870  -14.4310 C   0  0  0  0  0  0  0  0  0  0  0  0
   45.8970   24.3230  -13.4820 C   0  0  0  0  0  0  0  0  0  0  0  0
   44.5970   25.0650  -13.7060 C   0  0  0  0  0  0  0  0  0  0  0  0
   43.6220   24.4630  -14.5190 C   0  0  0  0  0  0  0  0  0  0  0  0
   42.4030   25.0970  -14.7720 C   0  0  0  0  0  0  0  0  0  0  0  0
   42.1220   26.3490  -14.2160 C   0  0  0  0  0  0  0  0  0  0  0  0
   40.8360   27.0130  -14.5080 C   0  0  0  0  0  0  0  0  0  0  0  0
   40.3630   26.7390  -15.7860 O   0  0  0  0  0  0  0  0  0  0  0  0
   39.1750   27.2980  -16.1870 C   0  0  0  0  0  0  0  0  0  0  0  0
   38.7470   27.0100  -17.4840 C   0  0  0  0  0  0  0  0  0  0  0  0
   37.5450   27.5450  -17.9530 C   0  0  0  0  0  0  0  0  0  0  0  0
   36.7730   28.3660  -17.1280 C   0  0  0  0  0  0  0  0  0  0  0  0
   37.2040   28.6510  -15.8350 C   0  0  0  0  0  0  0  0  0  0  0  0
   36.3990   29.4610  -15.0800 O   0  0  0  0  0  0  0  0  0  0  0  0
   38.4070   28.1160  -15.3660 C   0  0  0  0  0  0  0  0  0  0  0  0
   38.8950   28.3910  -14.0130 C   0  0  0  0  0  0  0  0  0  0  0  0
   38.2710   29.0960  -13.2250 O   0  0  0  0  0  0  0  0  0  0  0  0
   40.1860   27.7820  -13.6150 C   0  0  0  0  0  0  0  0  0  0  0  0
   40.6350   28.0360  -12.3320 O   0  0  0  0  0  0  0  0  0  0  0  0
   43.1010   26.9590  -13.4190 C   0  0  0  0  0  0  0  0  0  0  0  0
   44.3390   26.3380  -13.1560 C   0  0  0  0  0  0  0  0  0  0  0  0
   45.3300   27.0470  -12.2600 C   0  0  0  0  0  0  0  0  0  0  0  0
   46.5990   27.0460  -12.7560 F   0  0  0  0  0  0  0  0  0  0  0  0
   45.0300   28.3610  -12.0460 F   0  0  0  0  0  0  0  0  0  0  0  0
   47.8515   25.1512  -13.8491 H   0  0  0  0  0  0  0  0  0  0  0  0
   47.3085   23.9457  -15.0650 H   0  0  0  0  0  0  0  0  0  0  0  0
   46.6077   25.5996  -15.0650 H   0  0  0  0  0  0  0  0  0  0  0  0
   45.7235   23.2482  -13.6391 H   0  0  0  0  0  0  0  0  0  0  0  0
   46.2308   24.5274  -12.4540 H   0  0  0  0  0  0  0  0  0  0  0  0
   43.8216   23.4768  -14.9634 H   0  0  0  0  0  0  0  0  0  0  0  0
   41.6571   24.6066  -15.4147 H   0  0  0  0  0  0  0  0  0  0  0  0
   39.3544   26.3638  -18.1347 H   0  0  0  0  0  0  0  0  0  0  0  0
   37.2056   27.3191  -18.9747 H   0  0  0  0  0  0  0  0  0  0  0  0
   35.8266   28.7865  -17.4989 H   0  0  0  0  0  0  0  0  0  0  0  0
   35.9630   29.1160  -14.3260 H   0  0  0  0  0  0  0  0  0  0  0  0
   40.3930   28.8320  -11.9010 H   0  0  0  0  0  0  0  0  0  0  0  0
   42.8974   27.9498  -12.9868 H   0  0  0  0  0  0  0  0  0  0  0  0
   45.2642   26.4705  -11.3255 H   0  0  0  0  0  0  0  0  0  0  0  0
  1  2  1  0
  2  3  1  0
  3  4  2  0
  4  5  1  0
  5  6  2  0
  6  7  1  0
  7  8  1  0
  8  9  1  0
  9 10  2  0
 10 11  1  0
 11 12  2  0
 12 13  1  0
 13 14  1  0
 13 15  2  0
 15 16  1  0
 16 17  2  0
 16 18  1  0
 18 19  1  0
  6 20  1  0
 20 21  2  0
 21 22  1  0
 22 23  1  0
 22 24  1  0
 21  3  1  0
 18  7  2  0
 15  9  1  0
  1 25  1  0
  1 26  1  0
  1 27  1  0
  2 28  1  0
  2 29  1  0
  4 30  1  0
  5 31  1  0
 10 32  1  0
 11 33  1  0
 12 34  1  0
 14 35  1  0
 19 36  1  0
 20 37  1  0
 22 38  1  0
M  END
>  <meeko>  (3) 
{"is_sidechain": [false], "free_energy": -7.115, "intermolecular_energy": -8.91, "internal_energy": 0.255}

$$$$
cand_030_out
     RDKit          3D

 38 40  0  0  0  0  0  0  0  0999 V2000
   36.8030   26.5330  -19.9890 C   0  0  0  0  0  0  0  0  0  0  0  0
   36.4930   27.4150  -18.7890 C   0  0  0  0  0  0  0  0  0  0  0  0
   37.5480   27.2990  -17.7100 C   0  0  0  0  0  0  0  0  0  0  0  0
   38.5630   26.3410  -17.8750 C   0  0  0  0  0  0  0  0  0  0  0  0
   39.5630   26.1770  -16.9150 C   0  0  0  0  0  0  0  0  0  0  0  0
   39.5820   26.9700  -15.7620 C   0  0  0  0  0  0  0  0  0  0  0  0
   40.6370   26.7710  -14.7490 C   0  0  0  0  0  0  0  0  0  0  0  0
   41.7860   26.1870  -15.2700 O   0  0  0  0  0  0  0  0  0  0  0  0
   42.8440   25.9440  -14.4310 C   0  0  0  0  0  0  0  0  0  0  0  0
   43.9710   25.3410  -14.9920 C   0  0  0  0  0  0  0  0  0  0  0  0
   45.0840   25.0680  -14.1930 C   0  0  0  0  0  0  0  0  0  0  0  0
   45.0710   25.3980  -12.8360 C   0  0  0  0  0  0  0  0  0  0  0  0
   43.9440   26.0000  -12.2790 C   0  0  0  0  0  0  0  0  0  0  0  0
   43.9990   26.2960  -10.9450 O   0  0  0  0  0  0  0  0  0  0  0  0
   42.8310   26.2710  -13.0780 C   0  0  0  0  0  0  0  0  0  0  0  0
   41.6280   26.9020  -12.5330 C   0  0  0  0  0  0  0  0  0  0  0  0
   41.5410   27.2290  -11.3520 O   0  0  0  0  0  0  0  0  0  0  0  0
   40.4990   27.1410  -13.4620 C   0  0  0  0  0  0  0  0  0  0  0  0
   39.3710   27.7480  -12.9420 O   0  0  0  0  0  0  0  0  0  0  0  0
   38.5600   27.9140  -15.5870 C   0  0  0  0  0  0  0  0  0  0  0  0
   37.5380   28.0900  -16.5430 C   0  0  0  0  0  0  0  0  0  0  0  0
   36.4900   29.1530  -16.2950 C   0  0  0  0  0  0  0  0  0  0  0  0
   36.4200   29.5440  -14.9930 F   0  0  0  0  0  0  0  0  0  0  0  0
   36.7000   30.3000  -17.0040 F   0  0  0  0  0  0  0  0  0  0  0  0
   37.1490   25.5486  -19.6409 H   0  0  0  0  0  0  0  0  0  0  0  0
   35.8948   26.4085  -20.5969 H   0  0  0  0  0  0  0  0  0  0  0  0
   37.5894   27.0041  -20.5969 H   0  0  0  0  0  0  0  0  0  0  0  0
   36.4402   28.4619  -19.1224 H   0  0  0  0  0  0  0  0  0  0  0  0
   35.5346   27.0832  -18.3630 H   0  0  0  0  0  0  0  0  0  0  0  0
   38.5695   25.7098  -18.7758 H   0  0  0  0  0  0  0  0  0  0  0  0
   40.3437   25.4170  -17.0662 H   0  0  0  0  0  0  0  0  0  0  0  0
   43.9827   25.0813  -16.0608 H   0  0  0  0  0  0  0  0  0  0  0  0
   45.9725   24.5921  -14.6336 H   0  0  0  0  0  0  0  0  0  0  0  0
   45.9483   25.1833  -12.2081 H   0  0  0  0  0  0  0  0  0  0  0  0
   44.6370   26.9030  -10.6260 H   0  0  0  0  0  0  0  0  0  0  0  0
   38.7650   27.2490  -12.4300 H   0  0  0  0  0  0  0  0  0  0  0  0
   38.5552   28.5346  -14.6788 H   0  0  0  0  0  0  0  0  0  0  0  0
   35.5617   28.6565  -16.6138 H   0  0  0  0  0  0  0  0  0  0  0  0
  1  2  1  0
  2  3  1  0
  3  4  2  0
  4  5  1  0
  5  6  2  0
  6  7  1  0
  7  8  1  0
  8  9  1  0
  9 10  2  0
 10 11  1  0
 11 12  2  0
 12 13  1  0
 13 14  1  0
 13 15  2  0
 15 16  1  0
 16 17  2  0
 16 18  1  0
 18 19  1  0
  6 20  1  0
 20 21  2  0
 21 22  1  0
 22 23  1  0
 22 24  1  0
 21  3  1  0
 18  7  2  0
 15  9  1  0
  1 25  1  0
  1 26  1  0
  1 27  1  0
  2 28  1  0
  2 29  1  0
  4 30  1  0
  5 31  1  0
 10 32  1  0
 11 33  1  0
 12 34  1  0
 14 35  1  0
 19 36  1  0
 20 37  1  0
 22 38  1  0
M  END
>  <meeko>  (4) 
{"is_sidechain": [false], "free_energy": -5.901, "intermolecular_energy": -7.072, "internal_energy": -0.085}

$$$$
cand_030_out
     RDKit          3D

 38 40  0  0  0  0  0  0  0  0999 V2000
   35.8820   30.3840  -18.2750 C   0  0  0  0  0  0  0  0  0  0  0  0
   35.5150   29.2380  -17.3430 C   0  0  0  0  0  0  0  0  0  0  0  0
   36.7170   28.7170  -16.5840 C   0  0  0  0  0  0  0  0  0  0  0  0
   36.9720   29.2420  -15.3050 C   0  0  0  0  0  0  0  0  0  0  0  0
   38.0670   28.8090  -14.5540 C   0  0  0  0  0  0  0  0  0  0  0  0
   38.9370   27.8360  -15.0570 C   0  0  0  0  0  0  0  0  0  0  0  0
   40.1000   27.4030  -14.2560 C   0  0  0  0  0  0  0  0  0  0  0  0
   41.0730   26.7650  -15.0160 O   0  0  0  0  0  0  0  0  0  0  0  0
   42.2070   26.3090  -14.3910 C   0  0  0  0  0  0  0  0  0  0  0  0
   43.1500   25.6590  -15.1880 C   0  0  0  0  0  0  0  0  0  0  0  0
   44.3280   25.1730  -14.6150 C   0  0  0  0  0  0  0  0  0  0  0  0
   44.5630   25.3370  -13.2480 C   0  0  0  0  0  0  0  0  0  0  0  0
   43.6190   25.9860  -12.4560 C   0  0  0  0  0  0  0  0  0  0  0  0
   43.9120   26.1130  -11.1260 O   0  0  0  0  0  0  0  0  0  0  0  0
   42.4400   26.4710  -13.0290 C   0  0  0  0  0  0  0  0  0  0  0  0
   41.4230   27.1600  -12.2320 C   0  0  0  0  0  0  0  0  0  0  0  0
   41.5590   27.3500  -11.0260 O   0  0  0  0  0  0  0  0  0  0  0  0
   40.2060   27.6290  -12.9330 C   0  0  0  0  0  0  0  0  0  0  0  0
   39.2560   28.2890  -12.1760 O   0  0  0  0  0  0  0  0  0  0  0  0
   38.6940   27.3230  -16.3390 C   0  0  0  0  0  0  0  0  0  0  0  0
   37.5970   27.7520  -17.1150 C   0  0  0  0  0  0  0  0  0  0  0  0
   37.3840   27.1270  -18.4770 C   0  0  0  0  0  0  0  0  0  0  0  0
   37.5750   25.7780  -18.4840 F   0  0  0  0  0  0  0  0  0  0  0  0
   36.1270   27.3140  -18.9720 F   0  0  0  0  0  0  0  0  0  0  0  0
   36.1641   31.2649  -17.6796 H   0  0  0  0  0  0  0  0  0  0  0  0
   36.7289   30.0838  -18.9095 H   0  0  0  0  0  0  0  0  0  0  0  0
   35.0182   30.6316  -18.9095 H   0  0  0  0  0  0  0  0  0  0  0  0
   34.7657   29.5938  -16.6205 H   0  0  0  0  0  0  0  0  0  0  0  0
   35.1176   28.4156  -17.9559 H   0  0  0  0  0  0  0  0  0  0  0  0
   36.2985   30.0059  -14.8892 H   0  0  0  0  0  0  0  0  0  0  0  0
   38.2471   29.2374  -13.5570 H   0  0  0  0  0  0  0  0  0  0  0  0
   42.9664   25.5295  -16.2648 H   0  0  0  0  0  0  0  0  0  0  0  0
   45.0721   24.6600  -15.2420 H   0  0  0  0  0  0  0  0  0  0  0  0
   45.4911   24.9546  -12.7982 H   0  0  0  0  0  0  0  0  0  0  0  0
   43.4180   26.7030  -10.5910 H   0  0  0  0  0  0  0  0  0  0  0  0
   38.9720   27.9240  -11.3610 H   0  0  0  0  0  0  0  0  0  0  0  0
   39.3772   26.5656  -16.7507 H   0  0  0  0  0  0  0  0  0  0  0  0
   38.1324   27.6410  -19.0981 H   0  0  0  0  0  0  0  0  0  0  0  0
  1  2  1  0
  2  3  1  0
  3  4  2  0
  4  5  1  0
  5  6  2  0
  6  7  1  0
  7  8  1  0
  8  9  1  0
  9 10  2  0
 10 11  1  0
 11 12  2  0
 12 13  1  0
 13 14  1  0
 13 15  2  0
 15 16  1  0
 16 17  2  0
 16 18  1  0
 18 19  1  0
  6 20  1  0
 20 21  2  0
 21 22  1  0
 22 23  1  0
 22 24  1  0
 21  3  1  0
 18  7  2  0
 15  9  1  0
  1 25  1  0
  1 26  1  0
  1 27  1  0
  2 28  1  0
  2 29  1  0
  4 30  1  0
  5 31  1  0
 10 32  1  0
 11 33  1  0
 12 34  1  0
 14 35  1  0
 19 36  1  0
 20 37  1  0
 22 38  1  0
M  END
>  <meeko>  (5) 
{"is_sidechain": [false], "free_energy": -5.641, "intermolecular_energy": -7.426, "internal_energy": 0.59}

$$$$
cand_030_out
     RDKit          3D

 38 40  0  0  0  0  0  0  0  0999 V2000
   46.1370   26.6700  -12.2020 C   0  0  0  0  0  0  0  0  0  0  0  0
   44.8760   25.9110  -11.8180 C   0  0  0  0  0  0  0  0  0  0  0  0
   43.7420   26.1660  -12.7870 C   0  0  0  0  0  0  0  0  0  0  0  0
   42.7200   27.0480  -12.3950 C   0  0  0  0  0  0  0  0  0  0  0  0
   41.6420   27.3220  -13.2390 C   0  0  0  0  0  0  0  0  0  0  0  0
   41.5550   26.7280  -14.5020 C   0  0  0  0  0  0  0  0  0  0  0  0
   40.3980   27.0160  -15.3730 C   0  0  0  0  0  0  0  0  0  0  0  0
   39.4710   27.8640  -14.7810 O   0  0  0  0  0  0  0  0  0  0  0  0
   38.3450   28.2100  -15.4850 C   0  0  0  0  0  0  0  0  0  0  0  0
   37.4320   29.0490  -14.8450 C   0  0  0  0  0  0  0  0  0  0  0  0
   36.2660   29.4410  -15.5070 C   0  0  0  0  0  0  0  0  0  0  0  0
   36.0130   28.9950  -16.8060 C   0  0  0  0  0  0  0  0  0  0  0  0
   36.9260   28.1570  -17.4410 C   0  0  0  0  0  0  0  0  0  0  0  0
   36.6170   27.7570  -18.7130 O   0  0  0  0  0  0  0  0  0  0  0  0
   38.0920   27.7640  -16.7780 C   0  0  0  0  0  0  0  0  0  0  0  0
   39.0780   26.8850  -17.4100 C   0  0  0  0  0  0  0  0  0  0  0  0
   38.9320   26.4560  -18.5520 O   0  0  0  0  0  0  0  0  0  0  0  0
   40.2760   26.5210  -16.6190 C   0  0  0  0  0  0  0  0  0  0  0  0
   41.2090   25.7000  -17.2270 O   0  0  0  0  0  0  0  0  0  0  0  0
   42.5640   25.8350  -14.8880 C   0  0  0  0  0  0  0  0  0  0  0  0
   43.6580   25.5400  -14.0480 C   0  0  0  0  0  0  0  0  0  0  0  0
   44.7230   24.5910  -14.5510 C   0  0  0  0  0  0  0  0  0  0  0  0
   45.8990   25.2120  -14.8480 F   0  0  0  0  0  0  0  0  0  0  0  0
   45.0500   23.6150  -13.6550 F   0  0  0  0  0  0  0  0  0  0  0  0
   46.6653   26.9880  -11.2911 H   0  0  0  0  0  0  0  0  0  0  0  0
   46.7920   26.0159  -12.7963 H   0  0  0  0  0  0  0  0  0  0  0  0
   45.8657   27.5550  -12.7963 H   0  0  0  0  0  0  0  0  0  0  0  0
   45.0992   24.8339  -11.8084 H   0  0  0  0  0  0  0  0  0  0  0  0
   44.5586   26.2612  -10.8247 H   0  0  0  0  0  0  0  0  0  0  0  0
   42.7704   27.5300  -11.4075 H   0  0  0  0  0  0  0  0  0  0  0  0
   40.8527   28.0125  -12.9069 H   0  0  0  0  0  0  0  0  0  0  0  0
   37.6299   29.4008  -13.8218 H   0  0  0  0  0  0  0  0  0  0  0  0
   35.5454   30.1025  -15.0039 H   0  0  0  0  0  0  0  0  0  0  0  0
   35.0947   29.3049  -17.3263 H   0  0  0  0  0  0  0  0  0  0  0  0
   37.0700   28.1290  -19.4430 H   0  0  0  0  0  0  0  0  0  0  0  0
   42.0550   25.5880  -16.8410 H   0  0  0  0  0  0  0  0  0  0  0  0
   42.5009   25.3507  -15.8736 H   0  0  0  0  0  0  0  0  0  0  0  0
   44.2580   24.1617  -15.4507 H   0  0  0  0  0  0  0  0  0  0  0  0
  1  2  1  0
  2  3  1  0
  3  4  2  0
  4  5  1  0
  5  6  2  0
  6  7  1  0
  7  8  1  0
  8  9  1  0
  9 10  2  0
 10 11  1  0
 11 12  2  0
 12 13  1  0
 13 14  1  0
 13 15  2  0
 15 16  1  0
 16 17  2  0
 16 18  1  0
 18 19  1  0
  6 20  1  0
 20 21  2  0
 21 22  1  0
 22 23  1  0
 22 24  1  0
 21  3  1  0
 18  7  2  0
 15  9  1  0
  1 25  1  0
  1 26  1  0
  1 27  1  0
  2 28  1  0
  2 29  1  0
  4 30  1  0
  5 31  1  0
 10 32  1  0
 11 33  1  0
 12 34  1  0
 14 35  1  0
 19 36  1  0
 20 37  1  0
 22 38  1  0
M  END
>  <meeko>  (6) 
{"is_sidechain": [false], "free_energy": -5.568, "intermolecular_energy": -7.032, "internal_energy": 0.287}

$$$$
cand_030_out
     RDKit          3D

 38 40  0  0  0  0  0  0  0  0999 V2000
   46.3540   26.4320  -12.3920 C   0  0  0  0  0  0  0  0  0  0  0  0
   45.1130   25.7100  -11.8880 C   0  0  0  0  0  0  0  0  0  0  0  0
   43.8660   26.1370  -12.6320 C   0  0  0  0  0  0  0  0  0  0  0  0
   43.0050   27.0580  -12.0100 C   0  0  0  0  0  0  0  0  0  0  0  0
   41.8350   27.4890  -12.6390 C   0  0  0  0  0  0  0  0  0  0  0  0
   41.4920   27.0150  -13.9090 C   0  0  0  0  0  0  0  0  0  0  0  0
   40.2410   27.4680  -14.5510 C   0  0  0  0  0  0  0  0  0  0  0  0
   40.0290   26.8860  -15.7950 O   0  0  0  0  0  0  0  0  0  0  0  0
   38.9020   27.2240  -16.5010 C   0  0  0  0  0  0  0  0  0  0  0  0
   38.7370   26.6300  -17.7530 C   0  0  0  0  0  0  0  0  0  0  0  0
   37.6100   26.9290  -18.5220 C   0  0  0  0  0  0  0  0  0  0  0  0
   36.6500   27.8210  -18.0400 C   0  0  0  0  0  0  0  0  0  0  0  0
   36.8170   28.4130  -16.7900 C   0  0  0  0  0  0  0  0  0  0  0  0
   35.8390   29.2760  -16.3800 O   0  0  0  0  0  0  0  0  0  0  0  0
   37.9460   28.1140  -16.0220 C   0  0  0  0  0  0  0  0  0  0  0  0
   38.1590   28.7130  -14.7030 C   0  0  0  0  0  0  0  0  0  0  0  0
   37.3570   29.5000  -14.2070 O   0  0  0  0  0  0  0  0  0  0  0  0
   39.3910   28.3360  -13.9720 C   0  0  0  0  0  0  0  0  0  0  0  0
   39.5810   28.8970  -12.7230 O   0  0  0  0  0  0  0  0  0  0  0  0
   42.3400   26.0830  -14.5240 C   0  0  0  0  0  0  0  0  0  0  0  0
   43.5230   25.6310  -13.9030 C   0  0  0  0  0  0  0  0  0  0  0  0
   44.4020   24.6490  -14.6460 C   0  0  0  0  0  0  0  0  0  0  0  0
   45.5950   25.1810  -15.0320 F   0  0  0  0  0  0  0  0  0  0  0  0
   44.7220   23.5430  -13.9140 F   0  0  0  0  0  0  0  0  0  0  0  0
   46.9500   26.7787  -11.5349 H   0  0  0  0  0  0  0  0  0  0  0  0
   46.9562   25.7433  -13.0027 H   0  0  0  0  0  0  0  0  0  0  0  0
   46.0529   27.2959  -13.0027 H   0  0  0  0  0  0  0  0  0  0  0  0
   45.2532   24.6273  -12.0223 H   0  0  0  0  0  0  0  0  0  0  0  0
   44.9792   25.9658  -10.8266 H   0  0  0  0  0  0  0  0  0  0  0  0
   43.2570   27.4454  -11.0118 H   0  0  0  0  0  0  0  0  0  0  0  0
   41.1767   28.2086  -12.1303 H   0  0  0  0  0  0  0  0  0  0  0  0
   39.4932   25.9276  -18.1335 H   0  0  0  0  0  0  0  0  0  0  0  0
   37.4785   26.4611  -19.5088 H   0  0  0  0  0  0  0  0  0  0  0  0
   35.7629   28.0560  -18.6465 H   0  0  0  0  0  0  0  0  0  0  0  0
   35.8080   30.1470  -16.7220 H   0  0  0  0  0  0  0  0  0  0  0  0
   38.9660   28.7280  -12.0360 H   0  0  0  0  0  0  0  0  0  0  0  0
   42.0754   25.6936  -15.5182 H   0  0  0  0  0  0  0  0  0  0  0  0
   43.7835   24.3815  -15.5154 H   0  0  0  0  0  0  0  0  0  0  0  0
  1  2  1  0
  2  3  1  0
  3  4  2  0
  4  5  1  0
  5  6  2  0
  6  7  1  0
  7  8  1  0
  8  9  1  0
  9 10  2  0
 10 11  1  0
 11 12  2  0
 12 13  1  0
 13 14  1  0
 13 15  2  0
 15 16  1  0
 16 17  2  0
 16 18  1  0
 18 19  1  0
  6 20  1  0
 20 21  2  0
 21 22  1  0
 22 23  1  0
 22 24  1  0
 21  3  1  0
 18  7  2  0
 15  9  1  0
  1 25  1  0
  1 26  1  0
  1 27  1  0
  2 28  1  0
  2 29  1  0
  4 30  1  0
  5 31  1  0
 10 32  1  0
 11 33  1  0
 12 34  1  0
 14 35  1  0
 19 36  1  0
 20 37  1  0
 22 38  1  0
M  END
>  <meeko>  (7) 
{"is_sidechain": [false], "free_energy": -5.182, "intermolecular_energy": -6.591, "internal_energy": 0.321}

$$$$
