cand_020_out
     RDKit          3D

 50 53  0  0  0  0  0  0  0  0999 V2000
   47.4930   23.9300  -12.1570 C   0  0  0  0  0  0  0  0  0  0  0  0
   47.0820   23.9940  -13.6200 C   0  0  0  0  0  0  0  0  0  0  0  0
   45.7500   24.6860  -13.8060 C   0  0  0  0  0  0  0  0  0  0  0  0
   44.5800   23.9100  -13.8280 C   0  0  0  0  0  0  0  0  0  0  0  0
   43.3310   24.5040  -14.0160 C   0  0  0  0  0  0  0  0  0  0  0  0
   43.2190   25.8870  -14.1940 C   0  0  0  0  0  0  0  0  0  0  0  0
   41.8850   26.5020  -14.3620 C   0  0  0  0  0  0  0  0  0  0  0  0
   41.3500   26.2920  -15.6290 O   0  0  0  0  0  0  0  0  0  0  0  0
   40.1150   26.8090  -15.9210 C   0  0  0  0  0  0  0  0  0  0  0  0
   39.6110   26.5610  -17.1980 C   0  0  0  0  0  0  0  0  0  0  0  0
   38.3580   27.0620  -17.5620 C   0  0  0  0  0  0  0  0  0  0  0  0
   37.6100   27.8080  -16.6490 C   0  0  0  0  0  0  0  0  0  0  0  0
   38.1160   28.0530  -15.3750 C   0  0  0  0  0  0  0  0  0  0  0  0
   37.3320   28.7910  -14.5310 O   0  0  0  0  0  0  0  0  0  0  0  0
   39.3690   27.5520  -15.0110 C   0  0  0  0  0  0  0  0  0  0  0  0
   39.9370   27.7870  -13.6830 C   0  0  0  0  0  0  0  0  0  0  0  0
   39.3420   28.4390  -12.8280 O   0  0  0  0  0  0  0  0  0  0  0  0
   41.2690   27.2060  -13.3950 C   0  0  0  0  0  0  0  0  0  0  0  0
   41.8000   27.4450  -12.1410 O   0  0  0  0  0  0  0  0  0  0  0  0
   44.3890   26.6610  -14.1680 C   0  0  0  0  0  0  0  0  0  0  0  0
   45.6590   26.0810  -13.9890 C   0  0  0  0  0  0  0  0  0  0  0  0
   46.8400   26.8590  -13.9740 N   0  0  0  0  0  0  0  0  0  0  0  0
   47.3960   27.0420  -12.6240 C   0  0  0  0  0  0  0  0  0  0  0  0
   48.5100   28.0860  -12.6840 C   0  0  0  0  0  0  0  0  0  0  0  0
   49.5800   27.6910  -13.7030 C   0  0  0  0  0  0  0  0  0  0  0  0
   48.9560   27.4040  -15.0670 C   0  0  0  0  0  0  0  0  0  0  0  0
   47.8240   26.3810  -14.9580 C   0  0  0  0  0  0  0  0  0  0  0  0
   46.6064   24.0681  -11.5207 H   0  0  0  0  0  0  0  0  0  0  0  0
   47.9467   22.9504  -11.9461 H   0  0  0  0  0  0  0  0  0  0  0  0
   48.2231   24.7253  -11.9461 H   0  0  0  0  0  0  0  0  0  0  0  0
   47.8503   24.5466  -14.1806 H   0  0  0  0  0  0  0  0  0  0  0  0
   46.9831   22.9628  -13.9899 H   0  0  0  0  0  0  0  0  0  0  0  0
   44.6486   22.8202  -13.6954 H   0  0  0  0  0  0  0  0  0  0  0  0
   42.4261   23.8786  -14.0243 H   0  0  0  0  0  0  0  0  0  0  0  0
   40.1989   25.9720  -17.9174 H   0  0  0  0  0  0  0  0  0  0  0  0
   37.9606   26.8683  -18.5692 H   0  0  0  0  0  0  0  0  0  0  0  0
   36.6234   28.2012  -16.9354 H   0  0  0  0  0  0  0  0  0  0  0  0
   36.7090   29.3970  -14.8810 H   0  0  0  0  0  0  0  0  0  0  0  0
   42.0680   28.3100  -11.9020 H   0  0  0  0  0  0  0  0  0  0  0  0
   44.3116   27.7514  -14.2909 H   0  0  0  0  0  0  0  0  0  0  0  0
   46.6042   27.3859  -11.9422 H   0  0  0  0  0  0  0  0  0  0  0  0
   47.7996   26.0876  -12.2550 H   0  0  0  0  0  0  0  0  0  0  0  0
   48.0786   29.0556  -12.9735 H   0  0  0  0  0  0  0  0  0  0  0  0
   48.9801   28.1530  -11.6918 H   0  0  0  0  0  0  0  0  0  0  0  0
   50.3024   28.5144  -13.8038 H   0  0  0  0  0  0  0  0  0  0  0  0
   50.0827   26.7792  -13.3483 H   0  0  0  0  0  0  0  0  0  0  0  0
   48.5537   28.3404  -15.4808 H   0  0  0  0  0  0  0  0  0  0  0  0
   49.7350   26.9901  -15.7242 H   0  0  0  0  0  0  0  0  0  0  0  0
   47.3382   26.2626  -15.9378 H   0  0  0  0  0  0  0  0  0  0  0  0
   48.2297   25.4103  -14.6367 H   0  0  0  0  0  0  0  0  0  0  0  0
  1  2  1  0
  2  3  1  0
  3  4  2  0
  4  5  1  0
  5  6  2  0
  6  7  1  0
  7  8  1  0
  8  9  1  0
  9 10  2  0
 10 11  1  0
 11 12  2  0
 12 13  1  0
 13 14  1  0
 13 15  2  0
 15 16  1  0
 16 17  2  0
 16 18  1  0
 18 19  1  0
  6 20  1  0
 20 21  2  0
 21 22  1  0
 22 23  1  0
 23 24  1  0
 24 25  1  0
 25 26  1  0
 26 27  1  0
 21  3  1  0
 27 22  1  0
 18  7  2  0
 15  9  1  0
  1 28  1  0
  1 29  1  0
  1 30  1  0
  2 31  1  0
  2 32  1  0
  4 33  1  0
  5 34  1  0
 10 35  1  0
 11 36  1  0
 12 37  1  0
 14 38  1  0
 19 39  1  0
 20 40  1  0
 23 41  1  0
 23 42  1  0
 24 43  1  0
 24 44  1  0
 25 45  1  0
 25 46  1  0
 26 47  1  0
 26 48  1  0
 27 49  1  0
 27 50  1  0
M  END
>  <meeko>  (1) 
{"is_sidechain": [false], "free_energy": -3.841, "intermolecular_energy": -4.739, "internal_energy": 0.447}

$$$$
cand_020_out
     RDKit          3D

 50 53  0  0  0  0  0  0  0  0999 V2000
   40.7320   26.9360  -10.0170 C   0  0  0  0  0  0  0  0  0  0  0  0
   41.5790   27.3510  -11.2100 C   0  0  0  0  0  0  0  0  0  0  0  0
   40.7830   27.3600  -12.4970 C   0  0  0  0  0  0  0  0  0  0  0  0
   39.4950   27.9160  -12.4920 C   0  0  0  0  0  0  0  0  0  0  0  0
   38.7170   27.9280  -13.6510 C   0  0  0  0  0  0  0  0  0  0  0  0
   39.2040   27.3780  -14.8420 C   0  0  0  0  0  0  0  0  0  0  0  0
   38.3770   27.4270  -16.0670 C   0  0  0  0  0  0  0  0  0  0  0  0
   37.4300   28.4460  -16.0380 O   0  0  0  0  0  0  0  0  0  0  0  0
   36.5940   28.6040  -17.1130 C   0  0  0  0  0  0  0  0  0  0  0  0
   35.6700   29.6480  -17.0470 C   0  0  0  0  0  0  0  0  0  0  0  0
   34.7870   29.8640  -18.1080 C   0  0  0  0  0  0  0  0  0  0  0  0
   34.8290   29.0380  -19.2340 C   0  0  0  0  0  0  0  0  0  0  0  0
   35.7530   27.9980  -19.2960 C   0  0  0  0  0  0  0  0  0  0  0  0
   35.7390   27.2270  -20.4260 O   0  0  0  0  0  0  0  0  0  0  0  0
   36.6360   27.7820  -18.2350 C   0  0  0  0  0  0  0  0  0  0  0  0
   37.6210   26.7010  -18.2600 C   0  0  0  0  0  0  0  0  0  0  0  0
   37.7150   25.9290  -19.2120 O   0  0  0  0  0  0  0  0  0  0  0  0
   38.5170   26.5620  -17.0880 C   0  0  0  0  0  0  0  0  0  0  0  0
   39.4360   25.5290  -17.1190 O   0  0  0  0  0  0  0  0  0  0  0  0
   40.4930   26.8250  -14.8450 C   0  0  0  0  0  0  0  0  0  0  0  0
   41.2900   26.7950  -13.6840 C   0  0  0  0  0  0  0  0  0  0  0  0
   42.5850   26.2280  -13.6840 N   0  0  0  0  0  0  0  0  0  0  0  0
   42.7790   25.2240  -14.7420 C   0  0  0  0  0  0  0  0  0  0  0  0
   44.1070   24.5050  -14.5050 C   0  0  0  0  0  0  0  0  0  0  0  0
   45.2650   25.4990  -14.4320 C   0  0  0  0  0  0  0  0  0  0  0  0
   44.9850   26.5900  -13.4000 C   0  0  0  0  0  0  0  0  0  0  0  0
   43.6340   27.2610  -13.6520 C   0  0  0  0  0  0  0  0  0  0  0  0
   41.2584   27.1939   -9.0862 H   0  0  0  0  0  0  0  0  0  0  0  0
   39.7673   27.4635  -10.0510 H   0  0  0  0  0  0  0  0  0  0  0  0
   40.5577   25.8504  -10.0510 H   0  0  0  0  0  0  0  0  0  0  0  0
   41.9742   28.3617  -11.0302 H   0  0  0  0  0  0  0  0  0  0  0  0
   42.3923   26.6185  -11.3195 H   0  0  0  0  0  0  0  0  0  0  0  0
   39.0932   28.3478  -11.5635 H   0  0  0  0  0  0  0  0  0  0  0  0
   37.7117   28.3740  -13.6278 H   0  0  0  0  0  0  0  0  0  0  0  0
   35.6370   30.2995  -16.1613 H   0  0  0  0  0  0  0  0  0  0  0  0
   34.0575   30.6857  -18.0567 H   0  0  0  0  0  0  0  0  0  0  0  0
   34.1340   29.2087  -20.0694 H   0  0  0  0  0  0  0  0  0  0  0  0
   36.5430   26.8940  -20.7760 H   0  0  0  0  0  0  0  0  0  0  0  0
   39.1950   24.6990  -17.4810 H   0  0  0  0  0  0  0  0  0  0  0  0
   40.8923   26.4034  -15.7792 H   0  0  0  0  0  0  0  0  0  0  0  0
   41.9550   24.4958  -14.7155 H   0  0  0  0  0  0  0  0  0  0  0  0
   42.7923   25.7167  -15.7254 H   0  0  0  0  0  0  0  0  0  0  0  0
   44.0505   23.9490  -13.5575 H   0  0  0  0  0  0  0  0  0  0  0  0
   44.2878   23.8189  -15.3456 H   0  0  0  0  0  0  0  0  0  0  0  0
   46.1824   24.9624  -14.1485 H   0  0  0  0  0  0  0  0  0  0  0  0
   45.3844   25.9714  -15.4182 H   0  0  0  0  0  0  0  0  0  0  0  0
   44.9799   26.1405  -12.3960 H   0  0  0  0  0  0  0  0  0  0  0  0
   45.7722   27.3541  -13.4808 H   0  0  0  0  0  0  0  0  0  0  0  0
   43.4217   27.9775  -12.8448 H   0  0  0  0  0  0  0  0  0  0  0  0
   43.6581   27.7965  -14.6125 H   0  0  0  0  0  0  0  0  0  0  0  0
  1  2  1  0
  2  3  1  0
  3  4  2  0
  4  5  1  0
  5  6  2  0
  6  7  1  0
  7  8  1  0
  8  9  1  0
  9 10  2  0
 10 11  1  0
 11 12  2  0
 12 13  1  0
 13 14  1  0
 13 15  2  0
 15 16  1  0
 16 17  2  0
 16 18  1  0
 18 19  1  0
  6 20  1  0
 20 21  2  0
 21 22  1  0
 22 23  1  0
 23 24  1  0
 24 25  1  0
 25 26  1  0
 26 27  1  0
 21  3  1  0
 27 22  1  0
 18  7  2  0
 15  9  1  0
  1 28  1  0
  1 29  1  0
  1 30  1  0
  2 31  1  0
  2 32  1  0
  4 33  1  0
  5 34  1  0
 10 35  1  0
 11 36  1  0
 12 37  1  0
 14 38  1  0
 19 39  1  0
 20 40  1  0
 23 41  1  0
 23 42  1  0
 24 43  1  0
 24 44  1  0
 25 45  1  0
 25 46  1  0
 26 47  1  0
 26 48  1  0
 27 49  1  0
 27 50  1  0
M  END
>  <meeko>  (2) 
{"is_sidechain": [false], "free_energy": -3.812, "intermolecular_energy": -4.159, "internal_energy": -0.098}

$$$$
cand_020_out
     RDKit          3D

 50 53  0  0  0  0  0  0  0  0999 V2000
   44.4050   24.7480  -10.3710 C   0  0  0  0  0  0  0  0  0  0  0  0
   44.1260   26.2230  -10.6190 C   0  0  0  0  0  0  0  0  0  0  0  0
   43.1570   26.4330  -11.7610 C   0  0  0  0  0  0  0  0  0  0  0  0
   41.8130   26.7120  -11.4680 C   0  0  0  0  0  0  0  0  0  0  0  0
   40.8800   26.8950  -12.4890 C   0  0  0  0  0  0  0  0  0  0  0  0
   41.2650   26.7960  -13.8310 C   0  0  0  0  0  0  0  0  0  0  0  0
   40.2680   27.0220  -14.9000 C   0  0  0  0  0  0  0  0  0  0  0  0
   39.2700   27.9160  -14.5270 O   0  0  0  0  0  0  0  0  0  0  0  0
   38.2800   28.2160  -15.4260 C   0  0  0  0  0  0  0  0  0  0  0  0
   37.3070   29.1290  -15.0150 C   0  0  0  0  0  0  0  0  0  0  0  0
   36.2690   29.4780  -15.8810 C   0  0  0  0  0  0  0  0  0  0  0  0
   36.2020   28.9150  -17.1580 C   0  0  0  0  0  0  0  0  0  0  0  0
   37.1740   28.0050  -17.5650 C   0  0  0  0  0  0  0  0  0  0  0  0
   37.0490   27.4910  -18.8260 O   0  0  0  0  0  0  0  0  0  0  0  0
   38.2140   27.6560  -16.6980 C   0  0  0  0  0  0  0  0  0  0  0  0
   39.2550   26.7040  -17.0860 C   0  0  0  0  0  0  0  0  0  0  0  0
   39.2610   26.1620  -18.1900 O   0  0  0  0  0  0  0  0  0  0  0  0
   40.3170   26.4090  -16.0970 C   0  0  0  0  0  0  0  0  0  0  0  0
   41.2880   25.4980  -16.4710 O   0  0  0  0  0  0  0  0  0  0  0  0
   42.6090   26.5200  -14.1220 C   0  0  0  0  0  0  0  0  0  0  0  0
   43.5630   26.3240  -13.1060 C   0  0  0  0  0  0  0  0  0  0  0  0
   44.9160   26.0360  -13.4000 N   0  0  0  0  0  0  0  0  0  0  0  0
   45.1050   24.7210  -14.0340 C   0  0  0  0  0  0  0  0  0  0  0  0
   46.5990   24.4050  -14.0840 C   0  0  0  0  0  0  0  0  0  0  0  0
   47.3720   25.5110  -14.8020 C   0  0  0  0  0  0  0  0  0  0  0  0
   47.0710   26.8760  -14.1870 C   0  0  0  0  0  0  0  0  0  0  0  0
   45.5660   27.1390  -14.1250 C   0  0  0  0  0  0  0  0  0  0  0  0
   44.4408   24.5586   -9.2880 H   0  0  0  0  0  0  0  0  0  0  0  0
   43.6054   24.1426  -10.8228 H   0  0  0  0  0  0  0  0  0  0  0  0
   45.3704   24.4764  -10.8228 H   0  0  0  0  0  0  0  0  0  0  0  0
   43.6985   26.6619   -9.7054 H   0  0  0  0  0  0  0  0  0  0  0  0
   45.0764   26.7078  -10.8868 H   0  0  0  0  0  0  0  0  0  0  0  0
   41.4909   26.7874  -10.4189 H   0  0  0  0  0  0  0  0  0  0  0  0
   39.8329   27.1190  -12.2372 H   0  0  0  0  0  0  0  0  0  0  0  0
   37.3582   29.5729  -14.0099 H   0  0  0  0  0  0  0  0  0  0  0  0
   35.5025   30.1975  -15.5574 H   0  0  0  0  0  0  0  0  0  0  0  0
   35.3837   29.1899  -17.8398 H   0  0  0  0  0  0  0  0  0  0  0  0
   36.3080   26.9610  -19.0450 H   0  0  0  0  0  0  0  0  0  0  0  0
   42.0940   25.7990  -16.8420 H   0  0  0  0  0  0  0  0  0  0  0  0
   42.9262   26.4549  -15.1733 H   0  0  0  0  0  0  0  0  0  0  0  0
   44.5841   23.9500  -13.4473 H   0  0  0  0  0  0  0  0  0  0  0  0
   44.6934   24.7367  -15.0540 H   0  0  0  0  0  0  0  0  0  0  0  0
   46.9804   24.3089  -13.0567 H   0  0  0  0  0  0  0  0  0  0  0  0
   46.7388   23.4650  -14.6380 H   0  0  0  0  0  0  0  0  0  0  0  0
   48.4501   25.3087  -14.7190 H   0  0  0  0  0  0  0  0  0  0  0  0
   47.0633   25.5262  -15.8577 H   0  0  0  0  0  0  0  0  0  0  0  0
   47.4824   26.9080  -13.1673 H   0  0  0  0  0  0  0  0  0  0  0  0
   47.5325   27.6499  -14.8179 H   0  0  0  0  0  0  0  0  0  0  0  0
   45.3787   28.0868  -13.5992 H   0  0  0  0  0  0  0  0  0  0  0  0
   45.1581   27.2048  -15.1445 H   0  0  0  0  0  0  0  0  0  0  0  0
  1  2  1  0
  2  3  1  0
  3  4  2  0
  4  5  1  0
  5  6  2  0
  6  7  1  0
  7  8  1  0
  8  9  1  0
  9 10  2  0
 10 11  1  0
 11 12  2  0
 12 13  1  0
 13 14  1  0
 13 15  2  0
 15 16  1  0
 16 17  2  0
 16 18  1  0
 18 19  1  0
  6 20  1  0
 20 21  2  0
 21 22  1  0
 22 23  1  0
 23 24  1  0
 24 25  1  0
 25 26  1  0
 26 27  1  0
 21  3  1  0
 27 22  1  0
 18  7  2  0
 15  9  1  0
  1 28  1  0
  1 29  1  0
  1 30  1  0
  2 31  1  0
  2 32  1  0
  4 33  1  0
  5 34  1  0
 10 35  1  0
 11 36  1  0
 12 37  1  0
 14 38  1  0
 19 39  1  0
 20 40  1  0
 23 41  1  0
 23 42  1  0
 24 43  1  0
 24 44  1  0
 25 45  1  0
 25 46  1  0
 26 47  1  0
 26 48  1  0
 27 49  1  0
 27 50  1  0
M  END
>  <meeko>  (3) 
{"is_sidechain": [false], "free_energy": -3.449, "intermolecular_energy": -3.378, "internal_energy": -0.43}

$$$$
cand_020_out
     RDKit          3D

 50 53  0  0  0  0  0  0  0  0999 V2000
   44.3550   24.5310  -10.4940 C   0  0  0  0  0  0  0  0  0  0  0  0
   44.4900   25.9690  -10.9710 C   0  0  0  0  0  0  0  0  0  0  0  0
   43.3430   26.3800  -11.8670 C   0  0  0  0  0  0  0  0  0  0  0  0
   42.1010   26.6790  -11.2850 C   0  0  0  0  0  0  0  0  0  0  0  0
   41.0100   27.0440  -12.0740 C   0  0  0  0  0  0  0  0  0  0  0  0
   41.1290   27.1130  -13.4670 C   0  0  0  0  0  0  0  0  0  0  0  0
   39.9700   27.5310  -14.2850 C   0  0  0  0  0  0  0  0  0  0  0  0
   39.9110   26.8760  -15.5110 O   0  0  0  0  0  0  0  0  0  0  0  0
   38.8840   27.1700  -16.3700 C   0  0  0  0  0  0  0  0  0  0  0  0
   38.8570   26.4790  -17.5820 C   0  0  0  0  0  0  0  0  0  0  0  0
   37.8380   26.7310  -18.5040 C   0  0  0  0  0  0  0  0  0  0  0  0
   36.8490   27.6730  -18.2150 C   0  0  0  0  0  0  0  0  0  0  0  0
   36.8790   28.3610  -17.0050 C   0  0  0  0  0  0  0  0  0  0  0  0
   35.8810   29.2700  -16.7860 O   0  0  0  0  0  0  0  0  0  0  0  0
   37.8980   28.1080  -16.0820 C   0  0  0  0  0  0  0  0  0  0  0  0
   37.9680   28.8090  -14.7990 C   0  0  0  0  0  0  0  0  0  0  0  0
   37.1380   29.6560  -14.4750 O   0  0  0  0  0  0  0  0  0  0  0  0
   39.0830   28.4610  -13.8880 C   0  0  0  0  0  0  0  0  0  0  0  0
   39.1440   29.1390  -12.6840 O   0  0  0  0  0  0  0  0  0  0  0  0
   42.3720   26.8170  -14.0470 C   0  0  0  0  0  0  0  0  0  0  0  0
   43.4820   26.4380  -13.2680 C   0  0  0  0  0  0  0  0  0  0  0  0
   44.7320   26.1290  -13.8540 N   0  0  0  0  0  0  0  0  0  0  0  0
   45.8090   27.0400  -13.4340 C   0  0  0  0  0  0  0  0  0  0  0  0
   47.0430   26.7800  -14.2980 C   0  0  0  0  0  0  0  0  0  0  0  0
   47.4650   25.3120  -14.2270 C   0  0  0  0  0  0  0  0  0  0  0  0
   46.2940   24.3900  -14.5640 C   0  0  0  0  0  0  0  0  0  0  0  0
   45.0710   24.7050  -13.7010 C   0  0  0  0  0  0  0  0  0  0  0  0
   44.3529   24.5082   -9.3942 H   0  0  0  0  0  0  0  0  0  0  0  0
   43.4130   24.1064  -10.8714 H   0  0  0  0  0  0  0  0  0  0  0  0
   45.2015   23.9385  -10.8714 H   0  0  0  0  0  0  0  0  0  0  0  0
   44.5112   26.6332  -10.0944 H   0  0  0  0  0  0  0  0  0  0  0  0
   45.4201   26.0475  -11.5530 H   0  0  0  0  0  0  0  0  0  0  0  0
   41.9866   26.6248  -10.1923 H   0  0  0  0  0  0  0  0  0  0  0  0
   40.0472   27.2798  -11.5970 H   0  0  0  0  0  0  0  0  0  0  0  0
   39.6364   25.7374  -17.8110 H   0  0  0  0  0  0  0  0  0  0  0  0
   37.8149   26.1862  -19.4593 H   0  0  0  0  0  0  0  0  0  0  0  0
   36.0476   27.8713  -18.9419 H   0  0  0  0  0  0  0  0  0  0  0  0
   35.7780   29.6580  -15.9380 H   0  0  0  0  0  0  0  0  0  0  0  0
   39.9280   29.5910  -12.4400 H   0  0  0  0  0  0  0  0  0  0  0  0
   42.4822   26.8828  -15.1395 H   0  0  0  0  0  0  0  0  0  0  0  0
   45.4817   28.0824  -13.5619 H   0  0  0  0  0  0  0  0  0  0  0  0
   46.0521   26.8664  -12.3753 H   0  0  0  0  0  0  0  0  0  0  0  0
   46.8112   27.0371  -15.3421 H   0  0  0  0  0  0  0  0  0  0  0  0
   47.8701   27.4000  -13.9217 H   0  0  0  0  0  0  0  0  0  0  0  0
   48.2796   25.1365  -14.9451 H   0  0  0  0  0  0  0  0  0  0  0  0
   47.8011   25.0925  -13.2028 H   0  0  0  0  0  0  0  0  0  0  0  0
   46.0282   24.5212  -15.6233 H   0  0  0  0  0  0  0  0  0  0  0  0
   46.6010   23.3527  -14.3649 H   0  0  0  0  0  0  0  0  0  0  0  0
   44.2212   24.0864  -14.0254 H   0  0  0  0  0  0  0  0  0  0  0  0
   45.2937   24.4867  -12.6461 H   0  0  0  0  0  0  0  0  0  0  0  0
  1  2  1  0
  2  3  1  0
  3  4  2  0
  4  5  1  0
  5  6  2  0
  6  7  1  0
  7  8  1  0
  8  9  1  0
  9 10  2  0
 10 11  1  0
 11 12  2  0
 12 13  1  0
 13 14  1  0
 13 15  2  0
 15 16  1  0
 16 17  2  0
 16 18  1  0
 18 19  1  0
  6 20  1  0
 20 21  2  0
 21 22  1  0
 22 23  1  0
 23 24  1  0
 24 25  1  0
 25 26  1  0
 26 27  1  0
 21  3  1  0
 27 22  1  0
 18  7  2  0
 15  9  1  0
  1 28  1  0
  1 29  1  0
  1 30  1  0
  2 31  1  0
  2 32  1  0
  4 33  1  0
  5 34  1  0
 10 35  1  0
 11 36  1  0
 12 37  1  0
 14 38  1  0
 19 39  1  0
 20 40  1  0
 23 41  1  0
 23 42  1  0
 24 43  1  0
 24 44  1  0
 25 45  1  0
 25 46  1  0
 26 47  1  0
 26 48  1  0
 27 49  1  0
 27 50  1  0
M  END
>  <meeko>  (4) 
{"is_sidechain": [false], "free_energy": -2.826, "intermolecular_energy": -3.728, "internal_energy": 0.688}

$$$$
cand_020_out
     RDKit          3D

 50 53  0  0  0  0  0  0  0  0999 V2000
   47.2260   23.9270  -11.8660 C   0  0  0  0  0  0  0  0  0  0  0  0
   47.0540   23.9930  -13.3760 C   0  0  0  0  0  0  0  0  0  0  0  0
   45.7440   24.6370  -13.7710 C   0  0  0  0  0  0  0  0  0  0  0  0
   44.5810   23.8520  -13.7890 C   0  0  0  0  0  0  0  0  0  0  0  0
   43.3530   24.3990  -14.1650 C   0  0  0  0  0  0  0  0  0  0  0  0
   43.2570   25.7430  -14.5400 C   0  0  0  0  0  0  0  0  0  0  0  0
   41.9430   26.3130  -14.9060 C   0  0  0  0  0  0  0  0  0  0  0  0
   41.3770   27.0650  -13.8830 O   0  0  0  0  0  0  0  0  0  0  0  0
   40.1550   27.6520  -14.0890 C   0  0  0  0  0  0  0  0  0  0  0  0
   39.6320   28.4090  -13.0400 C   0  0  0  0  0  0  0  0  0  0  0  0
   38.3900   29.0330  -13.1840 C   0  0  0  0  0  0  0  0  0  0  0  0
   37.6720   28.9000  -14.3740 C   0  0  0  0  0  0  0  0  0  0  0  0
   38.1980   28.1440  -15.4190 C   0  0  0  0  0  0  0  0  0  0  0  0
   37.4430   28.0530  -16.5560 O   0  0  0  0  0  0  0  0  0  0  0  0
   39.4400   27.5200  -15.2750 C   0  0  0  0  0  0  0  0  0  0  0  0
   40.0280   26.7160  -16.3480 C   0  0  0  0  0  0  0  0  0  0  0  0
   39.4550   26.5470  -17.4220 O   0  0  0  0  0  0  0  0  0  0  0  0
   41.3540   26.1040  -16.0980 C   0  0  0  0  0  0  0  0  0  0  0  0
   41.8930   25.3380  -17.1150 O   0  0  0  0  0  0  0  0  0  0  0  0
   44.4210   26.5270  -14.5190 C   0  0  0  0  0  0  0  0  0  0  0  0
   45.6700   25.9920  -14.1510 C   0  0  0  0  0  0  0  0  0  0  0  0
   46.8440   26.7800  -14.1400 N   0  0  0  0  0  0  0  0  0  0  0  0
   47.3750   27.0100  -12.7870 C   0  0  0  0  0  0  0  0  0  0  0  0
   48.4830   28.0600  -12.8610 C   0  0  0  0  0  0  0  0  0  0  0  0
   49.5730   27.6410  -13.8470 C   0  0  0  0  0  0  0  0  0  0  0  0
   48.9760   27.3050  -15.2120 C   0  0  0  0  0  0  0  0  0  0  0  0
   47.8490   26.2770  -15.0900 C   0  0  0  0  0  0  0  0  0  0  0  0
   46.3063   24.2799  -11.3764 H   0  0  0  0  0  0  0  0  0  0  0  0
   47.4263   22.8882  -11.5648 H   0  0  0  0  0  0  0  0  0  0  0  0
   48.0698   24.5652  -11.5648 H   0  0  0  0  0  0  0  0  0  0  0  0
   47.8808   24.5804  -13.8020 H   0  0  0  0  0  0  0  0  0  0  0  0
   47.0558   22.9632  -13.7628 H   0  0  0  0  0  0  0  0  0  0  0  0
   44.6378   22.7914  -13.5030 H   0  0  0  0  0  0  0  0  0  0  0  0
   42.4525   23.7672  -14.1664 H   0  0  0  0  0  0  0  0  0  0  0  0
   40.1962   28.5143  -12.1016 H   0  0  0  0  0  0  0  0  0  0  0  0
   37.9770   29.6304  -12.3578 H   0  0  0  0  0  0  0  0  0  0  0  0
   36.6939   29.3907  -14.4860 H   0  0  0  0  0  0  0  0  0  0  0  0
   37.5030   28.7200  -17.2130 H   0  0  0  0  0  0  0  0  0  0  0  0
   42.2980   25.7530  -17.8510 H   0  0  0  0  0  0  0  0  0  0  0  0
   44.3554   27.5890  -14.7979 H   0  0  0  0  0  0  0  0  0  0  0  0
   46.5690   27.3695  -12.1304 H   0  0  0  0  0  0  0  0  0  0  0  0
   47.7786   26.0708  -12.3808 H   0  0  0  0  0  0  0  0  0  0  0  0
   48.0502   29.0166  -13.1891 H   0  0  0  0  0  0  0  0  0  0  0  0
   48.9348   28.1621  -11.8633 H   0  0  0  0  0  0  0  0  0  0  0  0
   50.2910   28.4664  -13.9617 H   0  0  0  0  0  0  0  0  0  0  0  0
   50.0757   26.7450  -13.4540 H   0  0  0  0  0  0  0  0  0  0  0  0
   48.5747   28.2244  -15.6634 H   0  0  0  0  0  0  0  0  0  0  0  0
   49.7697   26.8759  -15.8412 H   0  0  0  0  0  0  0  0  0  0  0  0
   47.3820   26.1228  -16.0740 H   0  0  0  0  0  0  0  0  0  0  0  0
   48.2553   25.3203  -14.7300 H   0  0  0  0  0  0  0  0  0  0  0  0
  1  2  1  0
  2  3  1  0
  3  4  2  0
  4  5  1  0
  5  6  2  0
  6  7  1  0
  7  8  1  0
  8  9  1  0
  9 10  2  0
 10 11  1  0
 11 12  2  0
 12 13  1  0
 13 14  1  0
 13 15  2  0
 15 16  1  0
 16 17  2  0
 16 18  1  0
 18 19  1  0
  6 20  1  0
 20 21  2  0
 21 22  1  0
 22 23  1  0
 23 24  1  0
 24 25  1  0
 25 26  1  0
 26 27  1  0
 21  3  1  0
 27 22  1  0
 18  7  2  0
 15  9  1  0
  1 28  1  0
  1 29  1  0
  1 30  1  0
  2 31  1  0
  2 32  1  0
  4 33  1  0
  5 34  1  0
 10 35  1  0
 11 36  1  0
 12 37  1  0
 14 38  1  0
 19 39  1  0
 20 40  1  0
 23 41  1  0
 23 42  1  0
 24 43  1  0
 24 44  1  0
 25 45  1  0
 25 46  1  0
 26 47  1  0
 26 48  1  0
 27 49  1  0
 27 50  1  0
M  END
>  <meeko>  (5) 
{"is_sidechain": [false], "free_energy": -1.708, "intermolecular_energy": -1.973, "internal_energy": 0.313}

$$$$
