cand_036_out
     RDKit          3D

 35 37  0  0  0  0  0  0  0  0999 V2000
   45.9710   24.3720  -13.6630 C   0  0  0  0  0  0  0  0  0  0  0  0
   44.6660   25.0940  -13.8540 C   0  0  0  0  0  0  0  0  0  0  0  0
   43.6060   24.4400  -14.4960 C   0  0  0  0  0  0  0  0  0  0  0  0
   42.3800   25.0800  -14.6910 C   0  0  0  0  0  0  0  0  0  0  0  0
   42.1830   26.3950  -14.2560 C   0  0  0  0  0  0  0  0  0  0  0  0
   40.8870   27.0860  -14.4270 C   0  0  0  0  0  0  0  0  0  0  0  0
   40.3440   26.9090  -15.6930 O   0  0  0  0  0  0  0  0  0  0  0  0
   39.1400   27.4970  -15.9880 C   0  0  0  0  0  0  0  0  0  0  0  0
   38.6390   27.3060  -17.2760 C   0  0  0  0  0  0  0  0  0  0  0  0
   37.4170   27.8760  -17.6400 C   0  0  0  0  0  0  0  0  0  0  0  0
   36.6970   28.6360  -16.7170 C   0  0  0  0  0  0  0  0  0  0  0  0
   37.1990   28.8250  -15.4310 C   0  0  0  0  0  0  0  0  0  0  0  0
   36.4430   29.5810  -14.5770 O   0  0  0  0  0  0  0  0  0  0  0  0
   38.4220   28.2550  -15.0680 C   0  0  0  0  0  0  0  0  0  0  0  0
   38.9860   28.4300  -13.7280 C   0  0  0  0  0  0  0  0  0  0  0  0
   38.4090   29.0800  -12.8590 O   0  0  0  0  0  0  0  0  0  0  0  0
   40.2930   27.7910  -13.4470 C   0  0  0  0  0  0  0  0  0  0  0  0
   40.8090   27.9520  -12.1750 O   0  0  0  0  0  0  0  0  0  0  0  0
   43.2430   27.0450  -13.6050 C   0  0  0  0  0  0  0  0  0  0  0  0
   44.4820   26.4140  -13.4000 C   0  0  0  0  0  0  0  0  0  0  0  0
   45.5840   27.1640  -12.7030 C   0  0  0  0  0  0  0  0  0  0  0  0
   46.1740   24.2597  -12.5877 H   0  0  0  0  0  0  0  0  0  0  0  0
   45.9121   23.3782  -14.1308 H   0  0  0  0  0  0  0  0  0  0  0  0
   46.7817   24.9499  -14.1308 H   0  0  0  0  0  0  0  0  0  0  0  0
   43.7414   23.4079  -14.8515 H   0  0  0  0  0  0  0  0  0  0  0  0
   41.5603   24.5442  -15.1921 H   0  0  0  0  0  0  0  0  0  0  0  0
   39.2058   26.7071  -18.0041 H   0  0  0  0  0  0  0  0  0  0  0  0
   37.0215   27.7257  -18.6554 H   0  0  0  0  0  0  0  0  0  0  0  0
   35.7348   29.0850  -17.0043 H   0  0  0  0  0  0  0  0  0  0  0  0
   36.0710   30.3890  -14.8710 H   0  0  0  0  0  0  0  0  0  0  0  0
   41.7170   27.7870  -12.0130 H   0  0  0  0  0  0  0  0  0  0  0  0
   43.1004   28.0749  -13.2459 H   0  0  0  0  0  0  0  0  0  0  0  0
   45.4553   27.0764  -11.6141 H   0  0  0  0  0  0  0  0  0  0  0  0
   46.5566   26.7395  -12.9926 H   0  0  0  0  0  0  0  0  0  0  0  0
   45.5459   28.2245  -12.9926 H   0  0  0  0  0  0  0  0  0  0  0  0
  1  2  1  0
  2  3  2  0
  3  4  1  0
  4  5  2  0
  5  6  1  0
  6  7  1  0
  7  8  1  0
  8  9  2  0
  9 10  1  0
 10 11  2  0
 11 12  1  0
 12 13  1  0
 12 14  2  0
 14 15  1  0
 15 16  2  0
 15 17  1  0
 17 18  1  0
  5 19  1  0
 19 20  2  0
 20 21  1  0
 20  2  1  0
 17  6  2  0
 14  8  1  0
  1 22  1  0
  1 23  1  0
  1 24  1  0
  3 25  1  0
  4 26  1  0
  9 27  1  0
 10 28  1  0
 11 29  1  0
 13 30  1  0
 18 31  1  0
 19 32  1  0
 21 33  1  0
 21 34  1  0
 21 35  1  0
M  END
>  <meeko>  (1) 
{"is_sidechain": [false], "free_energy": -8.42, "intermolecular_energy": -9.405, "internal_energy": 0.035}

$$$$
cand_036_out
     RDKit          3D

 35 37  0  0  0  0  0  0  0  0999 V2000
   45.6320   24.7060  -13.0240 C   0  0  0  0  0  0  0  0  0  0  0  0
   44.3790   25.2310  -13.6690 C   0  0  0  0  0  0  0  0  0  0  0  0
   43.6290   24.3890  -14.5010 C   0  0  0  0  0  0  0  0  0  0  0  0
   42.4610   24.8440  -15.1170 C   0  0  0  0  0  0  0  0  0  0  0  0
   42.0140   26.1550  -14.9230 C   0  0  0  0  0  0  0  0  0  0  0  0
   40.7660   26.6530  -15.5410 C   0  0  0  0  0  0  0  0  0  0  0  0
   40.0320   27.4710  -14.6910 O   0  0  0  0  0  0  0  0  0  0  0  0
   38.8490   28.0020  -15.1380 C   0  0  0  0  0  0  0  0  0  0  0  0
   38.1370   28.8050  -14.2470 C   0  0  0  0  0  0  0  0  0  0  0  0
   36.9260   29.3790  -14.6400 C   0  0  0  0  0  0  0  0  0  0  0  0
   36.4280   29.1510  -15.9250 C   0  0  0  0  0  0  0  0  0  0  0  0
   37.1410   28.3490  -16.8130 C   0  0  0  0  0  0  0  0  0  0  0  0
   36.5970   28.1670  -18.0550 O   0  0  0  0  0  0  0  0  0  0  0  0
   38.3530   27.7740  -16.4180 C   0  0  0  0  0  0  0  0  0  0  0  0
   39.1330   26.9250  -17.3200 C   0  0  0  0  0  0  0  0  0  0  0  0
   38.7640   26.6830  -18.4670 O   0  0  0  0  0  0  0  0  0  0  0  0
   40.3990   26.3580  -16.8020 C   0  0  0  0  0  0  0  0  0  0  0  0
   41.1340   25.5690  -17.6670 O   0  0  0  0  0  0  0  0  0  0  0  0
   42.7610   26.9940  -14.0800 C   0  0  0  0  0  0  0  0  0  0  0  0
   43.9380   26.5510  -13.4520 C   0  0  0  0  0  0  0  0  0  0  0  0
   44.7010   27.4980  -12.5670 C   0  0  0  0  0  0  0  0  0  0  0  0
   45.5273   24.7499  -11.9299 H   0  0  0  0  0  0  0  0  0  0  0  0
   45.7955   23.6637  -13.3352 H   0  0  0  0  0  0  0  0  0  0  0  0
   46.4897   25.3204  -13.3352 H   0  0  0  0  0  0  0  0  0  0  0  0
   43.9648   23.3554  -14.6713 H   0  0  0  0  0  0  0  0  0  0  0  0
   41.8860   24.1634  -15.7622 H   0  0  0  0  0  0  0  0  0  0  0  0
   38.5291   28.9861  -13.2353 H   0  0  0  0  0  0  0  0  0  0  0  0
   36.3638   30.0112  -13.9370 H   0  0  0  0  0  0  0  0  0  0  0  0
   35.4747   29.6039  -16.2350 H   0  0  0  0  0  0  0  0  0  0  0  0
   37.0660   27.6840  -18.7060 H   0  0  0  0  0  0  0  0  0  0  0  0
   42.0540   25.7170  -17.7690 H   0  0  0  0  0  0  0  0  0  0  0  0
   42.4162   28.0241  -13.9068 H   0  0  0  0  0  0  0  0  0  0  0  0
   44.5041   27.2537  -11.5127 H   0  0  0  0  0  0  0  0  0  0  0  0
   45.7778   27.4030  -12.7705 H   0  0  0  0  0  0  0  0  0  0  0  0
   44.3791   28.5300  -12.7705 H   0  0  0  0  0  0  0  0  0  0  0  0
  1  2  1  0
  2  3  2  0
  3  4  1  0
  4  5  2  0
  5  6  1  0
  6  7  1  0
  7  8  1  0
  8  9  2  0
  9 10  1  0
 10 11  2  0
 11 12  1  0
 12 13  1  0
 12 14  2  0
 14 15  1  0
 15 16  2  0
 15 17  1  0
 17 18  1  0
  5 19  1  0
 19 20  2  0
 20 21  1  0
 20  2  1  0
 17  6  2  0
 14  8  1  0
  1 22  1  0
  1 23  1  0
  1 24  1  0
  3 25  1  0
  4 26  1  0
  9 27  1  0
 10 28  1  0
 11 29  1  0
 13 30  1  0
 18 31  1  0
 19 32  1  0
 21 33  1  0
 21 34  1  0
 21 35  1  0
M  END
>  <meeko>  (2) 
{"is_sidechain": [false], "free_energy": -8.154, "intermolecular_energy": -9.1, "internal_energy": 0.027}

$$$$
cand_036_out
     RDKit          3D

 35 37  0  0  0  0  0  0  0  0999 V2000
   35.5960   29.2000  -17.8390 C   0  0  0  0  0  0  0  0  0  0  0  0
   36.7460   28.7440  -16.9840 C   0  0  0  0  0  0  0  0  0  0  0  0
   37.0340   29.4300  -15.7960 C   0  0  0  0  0  0  0  0  0  0  0  0
   38.0950   29.0340  -14.9780 C   0  0  0  0  0  0  0  0  0  0  0  0
   38.9010   27.9470  -15.3290 C   0  0  0  0  0  0  0  0  0  0  0  0
   40.0130   27.4920  -14.4670 C   0  0  0  0  0  0  0  0  0  0  0  0
   41.0070   26.8260  -15.1760 O   0  0  0  0  0  0  0  0  0  0  0  0
   42.1000   26.3490  -14.4980 C   0  0  0  0  0  0  0  0  0  0  0  0
   43.0650   25.6740  -15.2450 C   0  0  0  0  0  0  0  0  0  0  0  0
   44.2030   25.1660  -14.6160 C   0  0  0  0  0  0  0  0  0  0  0  0
   44.3760   25.3320  -13.2410 C   0  0  0  0  0  0  0  0  0  0  0  0
   43.4110   26.0060  -12.4970 C   0  0  0  0  0  0  0  0  0  0  0  0
   43.6430   26.1330  -11.1540 O   0  0  0  0  0  0  0  0  0  0  0  0
   42.2720   26.5140  -13.1270 C   0  0  0  0  0  0  0  0  0  0  0  0
   41.2330   27.2290  -12.3820 C   0  0  0  0  0  0  0  0  0  0  0  0
   41.3170   27.4200  -11.1710 O   0  0  0  0  0  0  0  0  0  0  0  0
   40.0610   27.7210  -13.1420 C   0  0  0  0  0  0  0  0  0  0  0  0
   39.0940   28.4050  -12.4310 O   0  0  0  0  0  0  0  0  0  0  0  0
   38.6050   27.2550  -16.5140 C   0  0  0  0  0  0  0  0  0  0  0  0
   37.5400   27.6390  -17.3470 C   0  0  0  0  0  0  0  0  0  0  0  0
   37.2760   26.8650  -18.6090 C   0  0  0  0  0  0  0  0  0  0  0  0
   34.7675   29.5285  -17.1943 H   0  0  0  0  0  0  0  0  0  0  0  0
   35.9207   30.0374  -18.4741 H   0  0  0  0  0  0  0  0  0  0  0  0
   35.2586   28.3676  -18.4741 H   0  0  0  0  0  0  0  0  0  0  0  0
   36.4161   30.2919  -15.5038 H   0  0  0  0  0  0  0  0  0  0  0  0
   38.2985   29.5837  -14.0472 H   0  0  0  0  0  0  0  0  0  0  0  0
   42.9296   25.5420  -16.3286 H   0  0  0  0  0  0  0  0  0  0  0  0
   44.9646   24.6340  -15.2050 H   0  0  0  0  0  0  0  0  0  0  0  0
   45.2729   24.9312  -12.7461 H   0  0  0  0  0  0  0  0  0  0  0  0
   43.5300   26.9640  -10.7360 H   0  0  0  0  0  0  0  0  0  0  0  0
   38.2860   28.6400  -12.8450 H   0  0  0  0  0  0  0  0  0  0  0  0
   39.2224   26.3900  -16.7979 H   0  0  0  0  0  0  0  0  0  0  0  0
   36.9307   25.8525  -18.3527 H   0  0  0  0  0  0  0  0  0  0  0  0
   36.5021   27.3781  -19.1987 H   0  0  0  0  0  0  0  0  0  0  0  0
   38.2022   26.7982  -19.1987 H   0  0  0  0  0  0  0  0  0  0  0  0
  1  2  1  0
  2  3  2  0
  3  4  1  0
  4  5  2  0
  5  6  1  0
  6  7  1  0
  7  8  1  0
  8  9  2  0
  9 10  1  0
 10 11  2  0
 11 12  1  0
 12 13  1  0
 12 14  2  0
 14 15  1  0
 15 16  2  0
 15 17  1  0
 17 18  1  0
  5 19  1  0
 19 20  2  0
 20 21  1  0
 20  2  1  0
 17  6  2  0
 14  8  1  0
  1 22  1  0
  1 23  1  0
  1 24  1  0
  3 25  1  0
  4 26  1  0
  9 27  1  0
 10 28  1  0
 11 29  1  0
 13 30  1  0
 18 31  1  0
 19 32  1  0
 21 33  1  0
 21 34  1  0
 21 35  1  0
M  END
>  <meeko>  (3) 
{"is_sidechain": [false], "free_energy": -7.852, "intermolecular_energy": -8.942, "internal_energy": 0.207}

$$$$
cand_036_out
     RDKit          3D

 35 37  0  0  0  0  0  0  0  0999 V2000
   36.1220   27.7140  -19.0020 C   0  0  0  0  0  0  0  0  0  0  0  0
   37.1660   27.5240  -17.9360 C   0  0  0  0  0  0  0  0  0  0  0  0
   38.1250   26.5140  -18.0860 C   0  0  0  0  0  0  0  0  0  0  0  0
   39.1090   26.3090  -17.1150 C   0  0  0  0  0  0  0  0  0  0  0  0
   39.1560   27.1040  -15.9660 C   0  0  0  0  0  0  0  0  0  0  0  0
   40.2020   26.9250  -14.9370 C   0  0  0  0  0  0  0  0  0  0  0  0
   41.3500   26.3200  -15.4350 O   0  0  0  0  0  0  0  0  0  0  0  0
   42.4030   26.0940  -14.5860 C   0  0  0  0  0  0  0  0  0  0  0  0
   43.5300   25.4700  -15.1240 C   0  0  0  0  0  0  0  0  0  0  0  0
   44.6370   25.2120  -14.3140 C   0  0  0  0  0  0  0  0  0  0  0  0
   44.6190   25.5780  -12.9660 C   0  0  0  0  0  0  0  0  0  0  0  0
   43.4940   26.2010  -12.4310 C   0  0  0  0  0  0  0  0  0  0  0  0
   43.5430   26.5320  -11.1050 O   0  0  0  0  0  0  0  0  0  0  0  0
   42.3850   26.4570  -13.2430 C   0  0  0  0  0  0  0  0  0  0  0  0
   41.1830   27.1090  -12.7210 C   0  0  0  0  0  0  0  0  0  0  0  0
   41.0930   27.4660  -11.5480 O   0  0  0  0  0  0  0  0  0  0  0  0
   40.0600   27.3290  -13.6610 C   0  0  0  0  0  0  0  0  0  0  0  0
   38.9350   27.9560  -13.1600 O   0  0  0  0  0  0  0  0  0  0  0  0
   38.2000   28.1220  -15.8220 C   0  0  0  0  0  0  0  0  0  0  0  0
   37.2050   28.3420  -16.7910 C   0  0  0  0  0  0  0  0  0  0  0  0
   36.2020   29.4430  -16.5790 C   0  0  0  0  0  0  0  0  0  0  0  0
   35.1444   27.8919  -18.5302 H   0  0  0  0  0  0  0  0  0  0  0  0
   36.3899   28.5781  -19.6277 H   0  0  0  0  0  0  0  0  0  0  0  0
   36.0682   26.8109  -19.6277 H   0  0  0  0  0  0  0  0  0  0  0  0
   38.1033   25.8736  -18.9801 H   0  0  0  0  0  0  0  0  0  0  0  0
   39.8550   25.5131  -17.2564 H   0  0  0  0  0  0  0  0  0  0  0  0
   43.5456   25.1819  -16.1855 H   0  0  0  0  0  0  0  0  0  0  0  0
   45.5248   24.7198  -14.7377 H   0  0  0  0  0  0  0  0  0  0  0  0
   45.4918   25.3745  -12.3282 H   0  0  0  0  0  0  0  0  0  0  0  0
   43.7570   25.8810  -10.4670 H   0  0  0  0  0  0  0  0  0  0  0  0
   39.0180   28.5880  -12.4730 H   0  0  0  0  0  0  0  0  0  0  0  0
   38.2300   28.7635  -14.9289 H   0  0  0  0  0  0  0  0  0  0  0  0
   36.0560   29.6033  -15.5006 H   0  0  0  0  0  0  0  0  0  0  0  0
   36.5723   30.3702  -17.0407 H   0  0  0  0  0  0  0  0  0  0  0  0
   35.2444   29.1605  -17.0407 H   0  0  0  0  0  0  0  0  0  0  0  0
  1  2  1  0
  2  3  2  0
  3  4  1  0
  4  5  2  0
  5  6  1  0
  6  7  1  0
  7  8  1  0
  8  9  2  0
  9 10  1  0
 10 11  2  0
 11 12  1  0
 12 13  1  0
 12 14  2  0
 14 15  1  0
 15 16  2  0
 15 17  1  0
 17 18  1  0
  5 19  1  0
 19 20  2  0
 20 21  1  0
 20  2  1  0
 17  6  2  0
 14  8  1  0
  1 22  1  0
  1 23  1  0
  1 24  1  0
  3 25  1  0
  4 26  1  0
  9 27  1  0
 10 28  1  0
 11 29  1  0
 13 30  1  0
 18 31  1  0
 19 32  1  0
 21 33  1  0
 21 34  1  0
 21 35  1  0
M  END
>  <meeko>  (4) 
{"is_sidechain": [false], "free_energy": -6.938, "intermolecular_energy": -7.986, "internal_energy": 0.272}

$$$$
cand_036_out
     RDKit          3D

 35 37  0  0  0  0  0  0  0  0999 V2000
   44.8010   25.6430  -11.8830 C   0  0  0  0  0  0  0  0  0  0  0  0
   43.5590   26.1070  -12.5940 C   0  0  0  0  0  0  0  0  0  0  0  0
   42.6020   26.8520  -11.8920 C   0  0  0  0  0  0  0  0  0  0  0  0
   41.4370   27.2980  -12.5210 C   0  0  0  0  0  0  0  0  0  0  0  0
   41.1940   27.0050  -13.8660 C   0  0  0  0  0  0  0  0  0  0  0  0
   39.9820   27.4890  -14.5610 C   0  0  0  0  0  0  0  0  0  0  0  0
   39.7940   26.8860  -15.8000 O   0  0  0  0  0  0  0  0  0  0  0  0
   38.7050   27.2430  -16.5540 C   0  0  0  0  0  0  0  0  0  0  0  0
   38.5640   26.6250  -17.7970 C   0  0  0  0  0  0  0  0  0  0  0  0
   37.4760   26.9420  -18.6130 C   0  0  0  0  0  0  0  0  0  0  0  0
   36.5300   27.8760  -18.1870 C   0  0  0  0  0  0  0  0  0  0  0  0
   36.6730   28.4910  -16.9450 C   0  0  0  0  0  0  0  0  0  0  0  0
   35.7100   29.3960  -16.5900 O   0  0  0  0  0  0  0  0  0  0  0  0
   37.7620   28.1750  -16.1290 C   0  0  0  0  0  0  0  0  0  0  0  0
   37.9500   28.7980  -14.8180 C   0  0  0  0  0  0  0  0  0  0  0  0
   37.1570   29.6240  -14.3710 O   0  0  0  0  0  0  0  0  0  0  0  0
   39.1420   28.3990  -14.0350 C   0  0  0  0  0  0  0  0  0  0  0  0
   39.3020   28.9850  -12.7930 O   0  0  0  0  0  0  0  0  0  0  0  0
   42.1580   26.2670  -14.5710 C   0  0  0  0  0  0  0  0  0  0  0  0
   43.3360   25.8120  -13.9530 C   0  0  0  0  0  0  0  0  0  0  0  0
   44.3290   25.0180  -14.7570 C   0  0  0  0  0  0  0  0  0  0  0  0
   44.6446   25.7014  -10.7958 H   0  0  0  0  0  0  0  0  0  0  0  0
   45.0189   24.6028  -12.1667 H   0  0  0  0  0  0  0  0  0  0  0  0
   45.6476   26.2855  -12.1667 H   0  0  0  0  0  0  0  0  0  0  0  0
   42.7704   27.0889  -10.8311 H   0  0  0  0  0  0  0  0  0  0  0  0
   40.7026   27.8864  -11.9514 H   0  0  0  0  0  0  0  0  0  0  0  0
   39.3089   25.8890  -18.1337 H   0  0  0  0  0  0  0  0  0  0  0  0
   37.3642   26.4550  -19.5930 H   0  0  0  0  0  0  0  0  0  0  0  0
   35.6735   28.1259  -18.8305 H   0  0  0  0  0  0  0  0  0  0  0  0
   35.1380   29.7520  -17.2410 H   0  0  0  0  0  0  0  0  0  0  0  0
   38.7770   29.7220  -12.5510 H   0  0  0  0  0  0  0  0  0  0  0  0
   41.9874   26.0390  -15.6335 H   0  0  0  0  0  0  0  0  0  0  0  0
   45.0040   24.4783  -14.0764 H   0  0  0  0  0  0  0  0  0  0  0  0
   43.7937   24.2961  -15.3912 H   0  0  0  0  0  0  0  0  0  0  0  0
   44.9155   25.6990  -15.3912 H   0  0  0  0  0  0  0  0  0  0  0  0
  1  2  1  0
  2  3  2  0
  3  4  1  0
  4  5  2  0
  5  6  1  0
  6  7  1  0
  7  8  1  0
  8  9  2  0
  9 10  1  0
 10 11  2  0
 11 12  1  0
 12 13  1  0
 12 14  2  0
 14 15  1  0
 15 16  2  0
 15 17  1  0
 17 18  1  0
  5 19  1  0
 19 20  2  0
 20 21  1  0
 20  2  1  0
 17  6  2  0
 14  8  1  0
  1 22  1  0
  1 23  1  0
  1 24  1  0
  3 25  1  0
  4 26  1  0
  9 27  1  0
 10 28  1  0
 11 29  1  0
 13 30  1  0
 18 31  1  0
 19 32  1  0
 21 33  1  0
 21 34  1  0
 21 35  1  0
M  END
>  <meeko>  (5) 
{"is_sidechain": [false], "free_energy": -6.888, "intermolecular_energy": -7.96, "internal_energy": 0.302}

$$$$
cand_036_out
     RDKit          3D

 35 37  0  0  0  0  0  0  0  0999 V2000
   44.8570   25.8590  -11.7400 C   0  0  0  0  0  0  0  0  0  0  0  0
   43.7030   26.1370  -12.6640 C   0  0  0  0  0  0  0  0  0  0  0  0
   42.6260   26.9080  -12.2070 C   0  0  0  0  0  0  0  0  0  0  0  0
   41.5380   27.1850  -13.0380 C   0  0  0  0  0  0  0  0  0  0  0  0
   41.4930   26.6930  -14.3460 C   0  0  0  0  0  0  0  0  0  0  0  0
   40.3660   26.9940  -15.2540 C   0  0  0  0  0  0  0  0  0  0  0  0
   39.4200   27.8330  -14.6780 O   0  0  0  0  0  0  0  0  0  0  0  0
   38.3190   28.1940  -15.4120 C   0  0  0  0  0  0  0  0  0  0  0  0
   37.3860   29.0260  -14.7900 C   0  0  0  0  0  0  0  0  0  0  0  0
   36.2440   29.4320  -15.4830 C   0  0  0  0  0  0  0  0  0  0  0  0
   36.0340   29.0090  -16.7970 C   0  0  0  0  0  0  0  0  0  0  0  0
   36.9660   28.1790  -17.4160 C   0  0  0  0  0  0  0  0  0  0  0  0
   36.6990   27.8010  -18.7030 O   0  0  0  0  0  0  0  0  0  0  0  0
   38.1090   27.7710  -16.7220 C   0  0  0  0  0  0  0  0  0  0  0  0
   39.1130   26.9000  -17.3340 C   0  0  0  0  0  0  0  0  0  0  0  0
   39.0020   26.4900  -18.4880 O   0  0  0  0  0  0  0  0  0  0  0  0
   40.2840   26.5190  -16.5100 C   0  0  0  0  0  0  0  0  0  0  0  0
   41.2320   25.7070  -17.1040 O   0  0  0  0  0  0  0  0  0  0  0  0
   42.5780   25.9290  -14.8060 C   0  0  0  0  0  0  0  0  0  0  0  0
   43.6810   25.6430  -13.9830 C   0  0  0  0  0  0  0  0  0  0  0  0
   44.8100   24.8120  -14.5270 C   0  0  0  0  0  0  0  0  0  0  0  0
   44.5190   25.9404  -10.6964 H   0  0  0  0  0  0  0  0  0  0  0  0
   45.2376   24.8435  -11.9240 H   0  0  0  0  0  0  0  0  0  0  0  0
   45.6583   26.5898  -11.9240 H   0  0  0  0  0  0  0  0  0  0  0  0
   42.6375   27.3006  -11.1795 H   0  0  0  0  0  0  0  0  0  0  0  0
   40.7067   27.7975  -12.6589 H   0  0  0  0  0  0  0  0  0  0  0  0
   37.5505   29.3612  -13.7553 H   0  0  0  0  0  0  0  0  0  0  0  0
   35.5082   30.0864  -14.9928 H   0  0  0  0  0  0  0  0  0  0  0  0
   35.1344   29.3305  -17.3423 H   0  0  0  0  0  0  0  0  0  0  0  0
   37.3750   27.4240  -19.2310 H   0  0  0  0  0  0  0  0  0  0  0  0
   41.5410   24.9440  -16.6560 H   0  0  0  0  0  0  0  0  0  0  0  0
   42.5643   25.5447  -15.8366 H   0  0  0  0  0  0  0  0  0  0  0  0
   45.3875   24.3870  -13.6928 H   0  0  0  0  0  0  0  0  0  0  0  0
   44.4018   23.9972  -15.1431 H   0  0  0  0  0  0  0  0  0  0  0  0
   45.4666   25.4439  -15.1431 H   0  0  0  0  0  0  0  0  0  0  0  0
  1  2  1  0
  2  3  2  0
  3  4  1  0
  4  5  2  0
  5  6  1  0
  6  7  1  0
  7  8  1  0
  8  9  2  0
  9 10  1  0
 10 11  2  0
 11 12  1  0
 12 13  1  0
 12 14  2  0
 14 15  1  0
 15 16  2  0
 15 17  1  0
 17 18  1  0
  5 19  1  0
 19 20  2  0
 20 21  1  0
 20  2  1  0
 17  6  2  0
 14  8  1  0
  1 22  1  0
  1 23  1  0
  1 24  1  0
  3 25  1  0
  4 26  1  0
  9 27  1  0
 10 28  1  0
 11 29  1  0
 13 30  1  0
 18 31  1  0
 19 32  1  0
 21 33  1  0
 21 34  1  0
 21 35  1  0
M  END
>  <meeko>  (6) 
{"is_sidechain": [false], "free_energy": -6.814, "intermolecular_energy": -7.974, "internal_energy": 0.398}

$$$$
cand_036_out
     RDKit          3D

 35 37  0  0  0  0  0  0  0  0999 V2000
   34.4890   29.4150  -18.9580 C   0  0  0  0  0  0  0  0  0  0  0  0
   35.6890   28.8870  -18.2210 C   0  0  0  0  0  0  0  0  0  0  0  0
   36.1520   29.5660  -17.0860 C   0  0  0  0  0  0  0  0  0  0  0  0
   37.2640   29.1040  -16.3770 C   0  0  0  0  0  0  0  0  0  0  0  0
   37.9480   27.9560  -16.7880 C   0  0  0  0  0  0  0  0  0  0  0  0
   39.1100   27.4310  -16.0410 C   0  0  0  0  0  0  0  0  0  0  0  0
   39.0720   27.7540  -14.6890 O   0  0  0  0  0  0  0  0  0  0  0  0
   40.0920   27.3280  -13.8760 C   0  0  0  0  0  0  0  0  0  0  0  0
   40.0210   27.6870  -12.5300 C   0  0  0  0  0  0  0  0  0  0  0  0
   41.0260   27.2850  -11.6470 C   0  0  0  0  0  0  0  0  0  0  0  0
   42.1010   26.5230  -12.1110 C   0  0  0  0  0  0  0  0  0  0  0  0
   42.1690   26.1660  -13.4560 C   0  0  0  0  0  0  0  0  0  0  0  0
   43.2480   25.4200  -13.8430 O   0  0  0  0  0  0  0  0  0  0  0  0
   41.1630   26.5700  -14.3390 C   0  0  0  0  0  0  0  0  0  0  0  0
   41.1970   26.2170  -15.7590 C   0  0  0  0  0  0  0  0  0  0  0  0
   42.1060   25.5450  -16.2410 O   0  0  0  0  0  0  0  0  0  0  0  0
   40.0860   26.7010  -16.6110 C   0  0  0  0  0  0  0  0  0  0  0  0
   40.1210   26.3510  -17.9480 O   0  0  0  0  0  0  0  0  0  0  0  0
   37.4770   27.2710  -17.9200 C   0  0  0  0  0  0  0  0  0  0  0  0
   36.3580   27.7220  -18.6430 C   0  0  0  0  0  0  0  0  0  0  0  0
   35.9050   26.9530  -19.8540 C   0  0  0  0  0  0  0  0  0  0  0  0
   33.7313   29.7484  -18.2336 H   0  0  0  0  0  0  0  0  0  0  0  0
   34.7907   30.2635  -19.5897 H   0  0  0  0  0  0  0  0  0  0  0  0
   34.0673   28.6193  -19.5897 H   0  0  0  0  0  0  0  0  0  0  0  0
   35.6329   30.4752  -16.7485 H   0  0  0  0  0  0  0  0  0  0  0  0
   37.6052   29.6499  -15.4851 H   0  0  0  0  0  0  0  0  0  0  0  0
   39.1742   28.2862  -12.1641 H   0  0  0  0  0  0  0  0  0  0  0  0
   40.9709   27.5686  -10.5856 H   0  0  0  0  0  0  0  0  0  0  0  0
   42.8922   26.2055  -11.4158 H   0  0  0  0  0  0  0  0  0  0  0  0
   43.9720   25.8320  -14.2730 H   0  0  0  0  0  0  0  0  0  0  0  0
   39.6530   26.8610  -18.5790 H   0  0  0  0  0  0  0  0  0  0  0  0
   37.9962   26.3589  -18.2494 H   0  0  0  0  0  0  0  0  0  0  0  0
   35.3708   26.0462  -19.5339 H   0  0  0  0  0  0  0  0  0  0  0  0
   35.2326   27.5811  -20.4568 H   0  0  0  0  0  0  0  0  0  0  0  0
   36.7803   26.6694  -20.4568 H   0  0  0  0  0  0  0  0  0  0  0  0
  1  2  1  0
  2  3  2  0
  3  4  1  0
  4  5  2  0
  5  6  1  0
  6  7  1  0
  7  8  1  0
  8  9  2  0
  9 10  1  0
 10 11  2  0
 11 12  1  0
 12 13  1  0
 12 14  2  0
 14 15  1  0
 15 16  2  0
 15 17  1  0
 17 18  1  0
  5 19  1  0
 19 20  2  0
 20 21  1  0
 20  2  1  0
 17  6  2  0
 14  8  1  0
  1 22  1  0
  1 23  1  0
  1 24  1  0
  3 25  1  0
  4 26  1  0
  9 27  1  0
 10 28  1  0
 11 29  1  0
 13 30  1  0
 18 31  1  0
 19 32  1  0
 21 33  1  0
 21 34  1  0
 21 35  1  0
M  END
>  <meeko>  (7) 
{"is_sidechain": [false], "free_energy": -5.935, "intermolecular_energy": -6.823, "internal_energy": 0.228}

$$$$
cand_036_out
     RDKit          3D

 35 37  0  0  0  0  0  0  0  0999 V2000
   47.3650   24.3890  -13.0690 C   0  0  0  0  0  0  0  0  0  0  0  0
   46.0130   24.9050  -13.4800 C   0  0  0  0  0  0  0  0  0  0  0  0
   45.0290   23.9980  -13.8980 C   0  0  0  0  0  0  0  0  0  0  0  0
   43.7630   24.4420  -14.2860 C   0  0  0  0  0  0  0  0  0  0  0  0
   43.4480   25.8050  -14.2750 C   0  0  0  0  0  0  0  0  0  0  0  0
   42.1070   26.2980  -14.6560 C   0  0  0  0  0  0  0  0  0  0  0  0
   41.5260   27.0920  -13.6750 O   0  0  0  0  0  0  0  0  0  0  0  0
   40.2790   27.6180  -13.8980 C   0  0  0  0  0  0  0  0  0  0  0  0
   39.7270   28.3970  -12.8810 C   0  0  0  0  0  0  0  0  0  0  0  0
   38.4610   28.9630  -13.0460 C   0  0  0  0  0  0  0  0  0  0  0  0
   37.7480   28.7510  -14.2270 C   0  0  0  0  0  0  0  0  0  0  0  0
   38.3010   27.9720  -15.2410 C   0  0  0  0  0  0  0  0  0  0  0  0
   37.5480   27.8040  -16.3710 O   0  0  0  0  0  0  0  0  0  0  0  0
   39.5670   27.4050  -15.0750 C   0  0  0  0  0  0  0  0  0  0  0  0
   40.1850   26.5810  -16.1150 C   0  0  0  0  0  0  0  0  0  0  0  0
   39.6220   26.3530  -17.1840 O   0  0  0  0  0  0  0  0  0  0  0  0
   41.5270   26.0200  -15.8380 C   0  0  0  0  0  0  0  0  0  0  0  0
   42.1060   25.2540  -16.8320 O   0  0  0  0  0  0  0  0  0  0  0  0
   44.4310   26.7100  -13.8460 C   0  0  0  0  0  0  0  0  0  0  0  0
   45.7100   26.2800  -13.4500 C   0  0  0  0  0  0  0  0  0  0  0  0
   46.7260   27.2970  -13.0090 C   0  0  0  0  0  0  0  0  0  0  0  0
   47.4298   24.3643  -11.9712 H   0  0  0  0  0  0  0  0  0  0  0  0
   47.5066   23.3736  -13.4676 H   0  0  0  0  0  0  0  0  0  0  0  0
   48.1471   25.0518  -13.4676 H   0  0  0  0  0  0  0  0  0  0  0  0
   45.2572   22.9222  -13.9207 H   0  0  0  0  0  0  0  0  0  0  0  0
   43.0046   23.7114  -14.6040 H   0  0  0  0  0  0  0  0  0  0  0  0
   40.2883   28.5653  -11.9501 H   0  0  0  0  0  0  0  0  0  0  0  0
   38.0251   29.5768  -12.2440 H   0  0  0  0  0  0  0  0  0  0  0  0
   36.7514   29.1981  -14.3569 H   0  0  0  0  0  0  0  0  0  0  0  0
   37.9650   27.7530  -17.2080 H   0  0  0  0  0  0  0  0  0  0  0  0
   42.9930   25.4130  -17.0900 H   0  0  0  0  0  0  0  0  0  0  0  0
   44.1948   27.7840  -13.8188 H   0  0  0  0  0  0  0  0  0  0  0  0
   46.7588   27.3298  -11.9100 H   0  0  0  0  0  0  0  0  0  0  0  0
   47.7166   27.0178  -13.3972 H   0  0  0  0  0  0  0  0  0  0  0  0
   46.4458   28.2874  -13.3972 H   0  0  0  0  0  0  0  0  0  0  0  0
  1  2  1  0
  2  3  2  0
  3  4  1  0
  4  5  2  0
  5  6  1  0
  6  7  1  0
  7  8  1  0
  8  9  2  0
  9 10  1  0
 10 11  2  0
 11 12  1  0
 12 13  1  0
 12 14  2  0
 14 15  1  0
 15 16  2  0
 15 17  1  0
 17 18  1  0
  5 19  1  0
 19 20  2  0
 20 21  1  0
 20  2  1  0
 17  6  2  0
 14  8  1  0
  1 22  1  0
  1 23  1  0
  1 24  1  0
  3 25  1  0
  4 26  1  0
  9 27  1  0
 10 28  1  0
 11 29  1  0
 13 30  1  0
 18 31  1  0
 19 32  1  0
 21 33  1  0
 21 34  1  0
 21 35  1  0
M  END
>  <meeko>  (8) 
{"is_sidechain": [false], "free_energy": -5.553, "intermolecular_energy": -6.033, "internal_energy": -0.134}

$$$$
