cand_024_out
     RDKit          3D

 47 49  0  0  0  0  0  0  0  0999 V2000
   48.1920   26.4910  -15.0690 C   0  0  0  0  0  0  0  0  0  0  0  0
   46.9550   26.3100  -14.3030 N   0  0  0  0  0  0  0  0  0  0  0  0
   47.1700   26.7470  -12.9200 C   0  0  0  0  0  0  0  0  0  0  0  0
   46.5020   24.9060  -14.3200 C   0  0  0  0  0  0  0  0  0  0  0  0
   45.2960   24.6470  -13.3980 C   0  0  0  0  0  0  0  0  0  0  0  0
   44.0090   25.2040  -13.9800 C   0  0  0  0  0  0  0  0  0  0  0  0
   43.6210   24.7740  -15.2600 C   0  0  0  0  0  0  0  0  0  0  0  0
   42.4540   25.2560  -15.8560 C   0  0  0  0  0  0  0  0  0  0  0  0
   41.6370   26.1760  -15.1900 C   0  0  0  0  0  0  0  0  0  0  0  0
   40.4150   26.6860  -15.8470 C   0  0  0  0  0  0  0  0  0  0  0  0
   39.6480   27.4910  -15.0130 O   0  0  0  0  0  0  0  0  0  0  0  0
   38.4860   28.0330  -15.5000 C   0  0  0  0  0  0  0  0  0  0  0  0
   37.7390   28.8220  -14.6250 C   0  0  0  0  0  0  0  0  0  0  0  0
   36.5460   29.4050  -15.0580 C   0  0  0  0  0  0  0  0  0  0  0  0
   36.1000   29.1980  -16.3640 C   0  0  0  0  0  0  0  0  0  0  0  0
   36.8470   28.4100  -17.2360 C   0  0  0  0  0  0  0  0  0  0  0  0
   36.3530   28.2490  -18.5020 O   0  0  0  0  0  0  0  0  0  0  0  0
   38.0400   27.8260  -16.8030 C   0  0  0  0  0  0  0  0  0  0  0  0
   38.8550   26.9910  -17.6870 C   0  0  0  0  0  0  0  0  0  0  0  0
   38.5340   26.7690  -18.8510 O   0  0  0  0  0  0  0  0  0  0  0  0
   40.0990   26.4140  -17.1260 C   0  0  0  0  0  0  0  0  0  0  0  0
   40.8700   25.6370  -17.9720 O   0  0  0  0  0  0  0  0  0  0  0  0
   42.0310   26.6150  -13.9180 C   0  0  0  0  0  0  0  0  0  0  0  0
   43.2080   26.1440  -13.2970 C   0  0  0  0  0  0  0  0  0  0  0  0
   43.5540   26.6490  -11.9130 C   0  0  0  0  0  0  0  0  0  0  0  0
   44.1970   25.7290  -11.1380 F   0  0  0  0  0  0  0  0  0  0  0  0
   44.3710   27.7400  -11.9410 F   0  0  0  0  0  0  0  0  0  0  0  0
   42.4570   27.0210  -11.1950 F   0  0  0  0  0  0  0  0  0  0  0  0
   49.0375   26.6147  -14.3763 H   0  0  0  0  0  0  0  0  0  0  0  0
   48.3633   25.6084  -15.7027 H   0  0  0  0  0  0  0  0  0  0  0  0
   48.1033   27.3857  -15.7027 H   0  0  0  0  0  0  0  0  0  0  0  0
   46.2260   26.8760  -14.7390 H   0  0  0  0  0  0  0  0  0  0  0  0
   46.7919   25.9785  -12.2297 H   0  0  0  0  0  0  0  0  0  0  0  0
   48.2456   26.8987  -12.7464 H   0  0  0  0  0  0  0  0  0  0  0  0
   46.6338   27.6916  -12.7464 H   0  0  0  0  0  0  0  0  0  0  0  0
   46.2180   24.6426  -15.3496 H   0  0  0  0  0  0  0  0  0  0  0  0
   47.3345   24.2892  -13.9507 H   0  0  0  0  0  0  0  0  0  0  0  0
   45.1824   23.5620  -13.2573 H   0  0  0  0  0  0  0  0  0  0  0  0
   45.4842   25.1534  -12.4398 H   0  0  0  0  0  0  0  0  0  0  0  0
   44.2455   24.0473  -15.8003 H   0  0  0  0  0  0  0  0  0  0  0  0
   42.1736   24.9083  -16.8612 H   0  0  0  0  0  0  0  0  0  0  0  0
   38.0892   28.9848  -13.5950 H   0  0  0  0  0  0  0  0  0  0  0  0
   35.9572   30.0281  -14.3687 H   0  0  0  0  0  0  0  0  0  0  0  0
   35.1598   29.6566  -16.7042 H   0  0  0  0  0  0  0  0  0  0  0  0
   35.4770   27.9400  -18.6260 H   0  0  0  0  0  0  0  0  0  0  0  0
   40.4860   25.2520  -18.7350 H   0  0  0  0  0  0  0  0  0  0  0  0
   41.4046   27.3479  -13.3884 H   0  0  0  0  0  0  0  0  0  0  0  0
  1  2  1  0
  2  3  1  0
  2  4  1  0
  4  5  1  0
  5  6  1  0
  6  7  2  0
  7  8  1  0
  8  9  2  0
  9 10  1  0
 10 11  1  0
 11 12  1  0
 12 13  2  0
 13 14  1  0
 14 15  2  0
 15 16  1  0
 16 17  1  0
 16 18  2  0
 18 19  1  0
 19 20  2  0
 19 21  1  0
 21 22  1  0
  9 23  1  0
 23 24  2  0
 24 25  1  0
 25 26  1  0
 25 27  1  0
 25 28  1  0
 24  6  1  0
 21 10  2  0
 18 12  1  0
  1 29  1  0
  1 30  1  0
  1 31  1  0
  2 32  1  0
  3 33  1  0
  3 34  1  0
  3 35  1  0
  4 36  1  0
  4 37  1  0
  5 38  1  0
  5 39  1  0
  7 40  1  0
  8 41  1  0
 13 42  1  0
 14 43  1  0
 15 44  1  0
 17 45  1  0
 22 46  1  0
 23 47  1  0
M  CHG  1   2   1
M  END
>  <meeko>  (1) 
{"is_sidechain": [false], "free_energy": -7.156, "intermolecular_energy": -9.666, "internal_energy": 0.069}

$$$$
cand_024_out
     RDKit          3D

 47 49  0  0  0  0  0  0  0  0999 V2000
   48.0640   26.4810  -15.0770 C   0  0  0  0  0  0  0  0  0  0  0  0
   46.8220   26.2820  -14.3260 N   0  0  0  0  0  0  0  0  0  0  0  0
   47.1200   26.2500  -12.8910 C   0  0  0  0  0  0  0  0  0  0  0  0
   46.1350   25.0380  -14.7230 C   0  0  0  0  0  0  0  0  0  0  0  0
   45.0070   24.6340  -13.7570 C   0  0  0  0  0  0  0  0  0  0  0  0
   43.6930   25.3090  -14.1070 C   0  0  0  0  0  0  0  0  0  0  0  0
   43.1120   25.0230  -15.3540 C   0  0  0  0  0  0  0  0  0  0  0  0
   41.9110   25.6200  -15.7410 C   0  0  0  0  0  0  0  0  0  0  0  0
   41.2500   26.5140  -14.8930 C   0  0  0  0  0  0  0  0  0  0  0  0
   39.9870   27.1470  -15.3290 C   0  0  0  0  0  0  0  0  0  0  0  0
   39.5610   26.7030  -16.5750 O   0  0  0  0  0  0  0  0  0  0  0  0
   38.3990   27.2110  -17.0970 C   0  0  0  0  0  0  0  0  0  0  0  0
   38.0150   26.7490  -18.3560 C   0  0  0  0  0  0  0  0  0  0  0  0
   36.8410   27.2240  -18.9450 C   0  0  0  0  0  0  0  0  0  0  0  0
   36.0530   28.1620  -18.2750 C   0  0  0  0  0  0  0  0  0  0  0  0
   36.4380   28.6210  -17.0190 C   0  0  0  0  0  0  0  0  0  0  0  0
   35.6190   29.5390  -16.4190 O   0  0  0  0  0  0  0  0  0  0  0  0
   37.6120   28.1460  -16.4300 C   0  0  0  0  0  0  0  0  0  0  0  0
   38.0530   28.6040  -15.1110 C   0  0  0  0  0  0  0  0  0  0  0  0
   37.4100   29.4210  -14.4570 O   0  0  0  0  0  0  0  0  0  0  0  0
   39.3170   28.0430  -14.5800 C   0  0  0  0  0  0  0  0  0  0  0  0
   39.7200   28.4700  -13.3280 O   0  0  0  0  0  0  0  0  0  0  0  0
   41.8350   26.8100  -13.6540 C   0  0  0  0  0  0  0  0  0  0  0  0
   43.0510   26.2220  -13.2430 C   0  0  0  0  0  0  0  0  0  0  0  0
   43.6090   26.5760  -11.8810 C   0  0  0  0  0  0  0  0  0  0  0  0
   44.2580   25.5440  -11.2680 F   0  0  0  0  0  0  0  0  0  0  0  0
   44.5090   27.5970  -11.9310 F   0  0  0  0  0  0  0  0  0  0  0  0
   42.6450   26.9680  -10.9990 F   0  0  0  0  0  0  0  0  0  0  0  0
   48.8998   26.6149  -14.3745 H   0  0  0  0  0  0  0  0  0  0  0  0
   48.2545   25.6019  -15.7102 H   0  0  0  0  0  0  0  0  0  0  0  0
   47.9703   27.3756  -15.7102 H   0  0  0  0  0  0  0  0  0  0  0  0
   46.1960   27.0610  -14.5350 H   0  0  0  0  0  0  0  0  0  0  0  0
   46.1852   26.3504  -12.3201 H   0  0  0  0  0  0  0  0  0  0  0  0
   47.6033   25.2948  -12.6381 H   0  0  0  0  0  0  0  0  0  0  0  0
   47.7951   27.0808  -12.6381 H   0  0  0  0  0  0  0  0  0  0  0  0
   45.7031   25.1813  -15.7245 H   0  0  0  0  0  0  0  0  0  0  0  0
   46.8833   24.2319  -14.7074 H   0  0  0  0  0  0  0  0  0  0  0  0
   44.8707   23.5436  -13.8057 H   0  0  0  0  0  0  0  0  0  0  0  0
   45.2949   24.9529  -12.7444 H   0  0  0  0  0  0  0  0  0  0  0  0
   43.6110   24.3182  -16.0354 H   0  0  0  0  0  0  0  0  0  0  0  0
   41.4794   25.3843  -16.7249 H   0  0  0  0  0  0  0  0  0  0  0  0
   38.6364   26.0111  -18.8846 H   0  0  0  0  0  0  0  0  0  0  0  0
   36.5370   26.8590  -19.9372 H   0  0  0  0  0  0  0  0  0  0  0  0
   35.1292   28.5376  -18.7393 H   0  0  0  0  0  0  0  0  0  0  0  0
   35.3990   30.3330  -16.8660 H   0  0  0  0  0  0  0  0  0  0  0  0
   39.8650   29.3820  -13.1690 H   0  0  0  0  0  0  0  0  0  0  0  0
   41.3319   27.5212  -12.9823 H   0  0  0  0  0  0  0  0  0  0  0  0
  1  2  1  0
  2  3  1  0
  2  4  1  0
  4  5  1  0
  5  6  1  0
  6  7  2  0
  7  8  1  0
  8  9  2  0
  9 10  1  0
 10 11  1  0
 11 12  1  0
 12 13  2  0
 13 14  1  0
 14 15  2  0
 15 16  1  0
 16 17  1  0
 16 18  2  0
 18 19  1  0
 19 20  2  0
 19 21  1  0
 21 22  1  0
  9 23  1  0
 23 24  2  0
 24 25  1  0
 25 26  1  0
 25 27  1  0
 25 28  1  0
 24  6  1  0
 21 10  2  0
 18 12  1  0
  1 29  1  0
  1 30  1  0
  1 31  1  0
  2 32  1  0
  3 33  1  0
  3 34  1  0
  3 35  1  0
  4 36  1  0
  4 37  1  0
  5 38  1  0
  5 39  1  0
  7 40  1  0
  8 41  1  0
 13 42  1  0
 14 43  1  0
 15 44  1  0
 17 45  1  0
 22 46  1  0
 23 47  1  0
M  CHG  1   2   1
M  END
>  <meeko>  (2) 
{"is_sidechain": [false], "free_energy": -5.952, "intermolecular_energy": -8.002, "internal_energy": 0.03}

$$$$
cand_024_out
     RDKit          3D

 47 49  0  0  0  0  0  0  0  0999 V2000
   47.3300   24.2330  -13.8600 C   0  0  0  0  0  0  0  0  0  0  0  0
   46.8130   25.5010  -14.3830 N   0  0  0  0  0  0  0  0  0  0  0  0
   47.9340   26.3890  -14.7050 C   0  0  0  0  0  0  0  0  0  0  0  0
   45.9100   26.1630  -13.4210 C   0  0  0  0  0  0  0  0  0  0  0  0
   44.7050   25.2910  -13.0220 C   0  0  0  0  0  0  0  0  0  0  0  0
   43.4380   25.7130  -13.7440 C   0  0  0  0  0  0  0  0  0  0  0  0
   43.3110   25.3860  -15.1050 C   0  0  0  0  0  0  0  0  0  0  0  0
   42.1750   25.7540  -15.8290 C   0  0  0  0  0  0  0  0  0  0  0  0
   41.1310   26.4540  -15.2150 C   0  0  0  0  0  0  0  0  0  0  0  0
   39.9450   26.8490  -16.0040 C   0  0  0  0  0  0  0  0  0  0  0  0
   39.1220   27.7460  -15.3340 O   0  0  0  0  0  0  0  0  0  0  0  0
   37.9860   28.1960  -15.9570 C   0  0  0  0  0  0  0  0  0  0  0  0
   37.1820   29.0840  -15.2420 C   0  0  0  0  0  0  0  0  0  0  0  0
   36.0110   29.5820  -15.8180 C   0  0  0  0  0  0  0  0  0  0  0  0
   35.6460   29.1920  -17.1080 C   0  0  0  0  0  0  0  0  0  0  0  0
   36.4500   28.3060  -17.8200 C   0  0  0  0  0  0  0  0  0  0  0  0
   36.0330   27.9660  -19.0770 O   0  0  0  0  0  0  0  0  0  0  0  0
   37.6210   27.8070  -17.2420 C   0  0  0  0  0  0  0  0  0  0  0  0
   38.4950   26.8740  -17.9550 C   0  0  0  0  0  0  0  0  0  0  0  0
   38.2450   26.4900  -19.0950 O   0  0  0  0  0  0  0  0  0  0  0  0
   39.7090   26.4000  -17.2510 C   0  0  0  0  0  0  0  0  0  0  0  0
   40.5360   25.5290  -17.9370 O   0  0  0  0  0  0  0  0  0  0  0  0
   41.2630   26.7920  -13.8610 C   0  0  0  0  0  0  0  0  0  0  0  0
   42.4030   26.4330  -13.1100 C   0  0  0  0  0  0  0  0  0  0  0  0
   42.4630   26.8160  -11.6470 C   0  0  0  0  0  0  0  0  0  0  0  0
   41.8630   25.9130  -10.8180 F   0  0  0  0  0  0  0  0  0  0  0  0
   43.7390   26.9430  -11.1880 F   0  0  0  0  0  0  0  0  0  0  0  0
   41.8510   28.0060  -11.3850 F   0  0  0  0  0  0  0  0  0  0  0  0
   47.3196   24.2585  -12.7603 H   0  0  0  0  0  0  0  0  0  0  0  0
   46.6975   23.4054  -14.2136 H   0  0  0  0  0  0  0  0  0  0  0  0
   48.3609   24.0836  -14.2136 H   0  0  0  0  0  0  0  0  0  0  0  0
   46.2730   25.3000  -15.2260 H   0  0  0  0  0  0  0  0  0  0  0  0
   48.3930   26.7526  -13.7738 H   0  0  0  0  0  0  0  0  0  0  0  0
   48.6828   25.8364  -15.2914 H   0  0  0  0  0  0  0  0  0  0  0  0
   47.5674   27.2444  -15.2914 H   0  0  0  0  0  0  0  0  0  0  0  0
   46.4825   26.4048  -12.5134 H   0  0  0  0  0  0  0  0  0  0  0  0
   45.5135   27.0643  -13.9114 H   0  0  0  0  0  0  0  0  0  0  0  0
   44.9255   24.2430  -13.2734 H   0  0  0  0  0  0  0  0  0  0  0  0
   44.5386   25.4127  -11.9415 H   0  0  0  0  0  0  0  0  0  0  0  0
   44.1180   24.8323  -15.6071 H   0  0  0  0  0  0  0  0  0  0  0  0
   42.1002   25.4904  -16.8943 H   0  0  0  0  0  0  0  0  0  0  0  0
   37.4699   29.3916  -14.2259 H   0  0  0  0  0  0  0  0  0  0  0  0
   35.3760   30.2819  -15.2550 H   0  0  0  0  0  0  0  0  0  0  0  0
   34.7239   29.5845  -17.5615 H   0  0  0  0  0  0  0  0  0  0  0  0
   35.8910   27.0660  -19.2960 H   0  0  0  0  0  0  0  0  0  0  0  0
   40.1660   24.8210  -18.4280 H   0  0  0  0  0  0  0  0  0  0  0  0
   40.4547   27.3533  -13.3695 H   0  0  0  0  0  0  0  0  0  0  0  0
  1  2  1  0
  2  3  1  0
  2  4  1  0
  4  5  1  0
  5  6  1  0
  6  7  2  0
  7  8  1  0
  8  9  2  0
  9 10  1  0
 10 11  1  0
 11 12  1  0
 12 13  2  0
 13 14  1  0
 14 15  2  0
 15 16  1  0
 16 17  1  0
 16 18  2  0
 18 19  1  0
 19 20  2  0
 19 21  1  0
 21 22  1  0
  9 23  1  0
 23 24  2  0
 24 25  1  0
 25 26  1  0
 25 27  1  0
 25 28  1  0
 24  6  1  0
 21 10  2  0
 18 12  1  0
  1 29  1  0
  1 30  1  0
  1 31  1  0
  2 32  1  0
  3 33  1  0
  3 34  1  0
  3 35  1  0
  4 36  1  0
  4 37  1  0
  5 38  1  0
  5 39  1  0
  7 40  1  0
  8 41  1  0
 13 42  1  0
 14 43  1  0
 15 44  1  0
 17 45  1  0
 22 46  1  0
 23 47  1  0
M  CHG  1   2   1
M  END
>  <meeko>  (3) 
{"is_sidechain": [false], "free_energy": -4.988, "intermolecular_energy": -6.954, "internal_energy": 0.285}

$$$$
