cand_055_out
     RDKit          3D

 41 43  0  0  0  0  0  0  0  0999 V2000
   47.3300   26.0820  -14.1510 C   0  0  0  0  0  0  0  0  0  0  0  0
   46.6920   24.7090  -14.0160 C   0  0  0  0  0  0  0  0  0  0  0  0
   45.5250   24.7320  -13.0270 C   0  0  0  0  0  0  0  0  0  0  0  0
   44.2590   25.2640  -13.6620 C   0  0  0  0  0  0  0  0  0  0  0  0
   43.6270   24.4850  -14.6450 C   0  0  0  0  0  0  0  0  0  0  0  0
   42.4610   24.9270  -15.2750 C   0  0  0  0  0  0  0  0  0  0  0  0
   41.8920   26.1580  -14.9370 C   0  0  0  0  0  0  0  0  0  0  0  0
   40.6720   26.6610  -15.6050 C   0  0  0  0  0  0  0  0  0  0  0  0
   39.8940   27.4620  -14.7760 O   0  0  0  0  0  0  0  0  0  0  0  0
   38.7320   27.9960  -15.2700 C   0  0  0  0  0  0  0  0  0  0  0  0
   37.9900   28.8070  -14.4090 C   0  0  0  0  0  0  0  0  0  0  0  0
   36.7960   29.3810  -14.8480 C   0  0  0  0  0  0  0  0  0  0  0  0
   36.3420   29.1440  -16.1480 C   0  0  0  0  0  0  0  0  0  0  0  0
   37.0840   28.3360  -17.0050 C   0  0  0  0  0  0  0  0  0  0  0  0
   36.5820   28.1440  -18.2630 O   0  0  0  0  0  0  0  0  0  0  0  0
   38.2800   27.7620  -16.5650 C   0  0  0  0  0  0  0  0  0  0  0  0
   39.0900   26.9060  -17.4340 C   0  0  0  0  0  0  0  0  0  0  0  0
   38.7540   26.6460  -18.5870 O   0  0  0  0  0  0  0  0  0  0  0  0
   40.3450   26.3530  -16.8730 C   0  0  0  0  0  0  0  0  0  0  0  0
   41.0950   25.5350  -17.6990 O   0  0  0  0  0  0  0  0  0  0  0  0
   42.5310   26.9440  -13.9660 C   0  0  0  0  0  0  0  0  0  0  0  0
   43.7100   26.5170  -13.3260 C   0  0  0  0  0  0  0  0  0  0  0  0
   44.3310   27.4040  -12.2820 C   0  0  0  0  0  0  0  0  0  0  0  0
   47.5227   26.4967  -13.1506 H   0  0  0  0  0  0  0  0  0  0  0  0
   48.2790   25.9930  -14.7001 H   0  0  0  0  0  0  0  0  0  0  0  0
   46.6500   26.7499  -14.7001 H   0  0  0  0  0  0  0  0  0  0  0  0
   46.3208   24.3882  -15.0005 H   0  0  0  0  0  0  0  0  0  0  0  0
   47.4522   24.0089  -13.6391 H   0  0  0  0  0  0  0  0  0  0  0  0
   45.3409   23.7079  -12.6701 H   0  0  0  0  0  0  0  0  0  0  0  0
   45.7958   25.3987  -12.1950 H   0  0  0  0  0  0  0  0  0  0  0  0
   44.0569   23.5115  -14.9233 H   0  0  0  0  0  0  0  0  0  0  0  0
   41.9863   24.3002  -16.0443 H   0  0  0  0  0  0  0  0  0  0  0  0
   38.3464   28.9934  -13.3852 H   0  0  0  0  0  0  0  0  0  0  0  0
   36.2118   30.0206  -14.1700 H   0  0  0  0  0  0  0  0  0  0  0  0
   35.4001   29.5950  -16.4936 H   0  0  0  0  0  0  0  0  0  0  0  0
   36.9460   28.6120  -18.9890 H   0  0  0  0  0  0  0  0  0  0  0  0
   42.0280   25.6150  -17.7140 H   0  0  0  0  0  0  0  0  0  0  0  0
   42.0993   27.9196  -13.6978 H   0  0  0  0  0  0  0  0  0  0  0  0
   44.0695   27.0305  -11.2809 H   0  0  0  0  0  0  0  0  0  0  0  0
   45.4246   27.4000  -12.4008 H   0  0  0  0  0  0  0  0  0  0  0  0
   43.9531   28.4302  -12.4008 H   0  0  0  0  0  0  0  0  0  0  0  0
  1  2  1  0
  2  3  1  0
  3  4  1  0
  4  5  2  0
  5  6  1  0
  6  7  2  0
  7  8  1  0
  8  9  1  0
  9 10  1  0
 10 11  2  0
 11 12  1  0
 12 13  2  0
 13 14  1  0
 14 15  1  0
 14 16  2  0
 16 17  1  0
 17 18  2  0
 17 19  1  0
 19 20  1  0
  7 21  1  0
 21 22  2  0
 22 23  1  0
 22  4  1  0
 19  8  2  0
 16 10  1  0
  1 24  1  0
  1 25  1  0
  1 26  1  0
  2 27  1  0
  2 28  1  0
  3 29  1  0
  3 30  1  0
  5 31  1  0
  6 32  1  0
 11 33  1  0
 12 34  1  0
 13 35  1  0
 15 36  1  0
 20 37  1  0
 21 38  1  0
 23 39  1  0
 23 40  1  0
 23 41  1  0
M  END
>  <meeko>  (1) 
{"is_sidechain": [false], "free_energy": -8.671, "intermolecular_energy": -10.698, "internal_energy": -0.247}

$$$$
cand_055_out
     RDKit          3D

 41 43  0  0  0  0  0  0  0  0999 V2000
   47.7060   26.2120  -14.4430 C   0  0  0  0  0  0  0  0  0  0  0  0
   47.0050   24.8650  -14.5110 C   0  0  0  0  0  0  0  0  0  0  0  0
   46.0300   24.6840  -13.3470 C   0  0  0  0  0  0  0  0  0  0  0  0
   44.6890   25.3250  -13.6310 C   0  0  0  0  0  0  0  0  0  0  0  0
   43.8150   24.6770  -14.5200 C   0  0  0  0  0  0  0  0  0  0  0  0
   42.5680   25.2240  -14.8300 C   0  0  0  0  0  0  0  0  0  0  0  0
   42.1570   26.4310  -14.2570 C   0  0  0  0  0  0  0  0  0  0  0  0
   40.8520   27.0440  -14.5860 C   0  0  0  0  0  0  0  0  0  0  0  0
   40.4240   26.7450  -15.8750 O   0  0  0  0  0  0  0  0  0  0  0  0
   39.2270   27.2500  -16.3100 C   0  0  0  0  0  0  0  0  0  0  0  0
   38.8290   26.9120  -17.6050 C   0  0  0  0  0  0  0  0  0  0  0  0
   37.6210   27.3960  -18.1120 C   0  0  0  0  0  0  0  0  0  0  0  0
   36.8110   28.2170  -17.3250 C   0  0  0  0  0  0  0  0  0  0  0  0
   37.2090   28.5520  -16.0330 C   0  0  0  0  0  0  0  0  0  0  0  0
   36.3690   29.3610  -15.3180 O   0  0  0  0  0  0  0  0  0  0  0  0
   38.4180   28.0680  -15.5270 C   0  0  0  0  0  0  0  0  0  0  0  0
   38.8740   28.3960  -14.1750 C   0  0  0  0  0  0  0  0  0  0  0  0
   38.2200   29.1180  -13.4250 O   0  0  0  0  0  0  0  0  0  0  0  0
   40.1670   27.8260  -13.7310 C   0  0  0  0  0  0  0  0  0  0  0  0
   40.5940   28.1540  -12.4570 O   0  0  0  0  0  0  0  0  0  0  0  0
   43.0360   27.0860  -13.3810 C   0  0  0  0  0  0  0  0  0  0  0  0
   44.2990   26.5530  -13.0640 C   0  0  0  0  0  0  0  0  0  0  0  0
   45.1820   27.3020  -12.1030 C   0  0  0  0  0  0  0  0  0  0  0  0
   47.8537   26.4958  -13.3905 H   0  0  0  0  0  0  0  0  0  0  0  0
   48.6825   26.1429  -14.9446 H   0  0  0  0  0  0  0  0  0  0  0  0
   47.0891   26.9721  -14.9446 H   0  0  0  0  0  0  0  0  0  0  0  0
   46.4486   24.7985  -15.4576 H   0  0  0  0  0  0  0  0  0  0  0  0
   47.7675   24.0745  -14.4500 H   0  0  0  0  0  0  0  0  0  0  0  0
   45.8804   23.6084  -13.1721 H   0  0  0  0  0  0  0  0  0  0  0  0
   46.4614   25.1729  -12.4611 H   0  0  0  0  0  0  0  0  0  0  0  0
   44.1176   23.7242  -14.9789 H   0  0  0  0  0  0  0  0  0  0  0  0
   41.9027   24.6999  -15.5319 H   0  0  0  0  0  0  0  0  0  0  0  0
   39.4665   26.2650  -18.2255 H   0  0  0  0  0  0  0  0  0  0  0  0
   37.3074   27.1302  -19.1323 H   0  0  0  0  0  0  0  0  0  0  0  0
   35.8599   28.5987  -17.7248 H   0  0  0  0  0  0  0  0  0  0  0  0
   35.4560   29.3880  -15.5260 H   0  0  0  0  0  0  0  0  0  0  0  0
   40.8500   29.0330  -12.2610 H   0  0  0  0  0  0  0  0  0  0  0  0
   42.7295   28.0414  -12.9302 H   0  0  0  0  0  0  0  0  0  0  0  0
   44.8921   27.0561  -11.0708 H   0  0  0  0  0  0  0  0  0  0  0  0
   46.2307   27.0138  -12.2678 H   0  0  0  0  0  0  0  0  0  0  0  0
   45.0687   28.3837  -12.2678 H   0  0  0  0  0  0  0  0  0  0  0  0
  1  2  1  0
  2  3  1  0
  3  4  1  0
  4  5  2  0
  5  6  1  0
  6  7  2  0
  7  8  1  0
  8  9  1  0
  9 10  1  0
 10 11  2  0
 11 12  1  0
 12 13  2  0
 13 14  1  0
 14 15  1  0
 14 16  2  0
 16 17  1  0
 17 18  2  0
 17 19  1  0
 19 20  1  0
  7 21  1  0
 21 22  2  0
 22 23  1  0
 22  4  1  0
 19  8  2  0
 16 10  1  0
  1 24  1  0
  1 25  1  0
  1 26  1  0
  2 27  1  0
  2 28  1  0
  3 29  1  0
  3 30  1  0
  5 31  1  0
  6 32  1  0
 11 33  1  0
 12 34  1  0
 13 35  1  0
 15 36  1  0
 20 37  1  0
 21 38  1  0
 23 39  1  0
 23 40  1  0
 23 41  1  0
M  END
>  <meeko>  (2) 
{"is_sidechain": [false], "free_energy": -8.513, "intermolecular_energy": -10.596, "internal_energy": -0.156}

$$$$
cand_055_out
     RDKit          3D

 41 43  0  0  0  0  0  0  0  0999 V2000
   34.2450   30.1270  -18.9000 C   0  0  0  0  0  0  0  0  0  0  0  0
   35.3510   29.7610  -17.9230 C   0  0  0  0  0  0  0  0  0  0  0  0
   36.0140   28.4360  -18.3020 C   0  0  0  0  0  0  0  0  0  0  0  0
   37.1250   28.0680  -17.3440 C   0  0  0  0  0  0  0  0  0  0  0  0
   37.2570   28.8110  -16.1590 C   0  0  0  0  0  0  0  0  0  0  0  0
   38.2680   28.5250  -15.2390 C   0  0  0  0  0  0  0  0  0  0  0  0
   39.1740   27.4870  -15.4750 C   0  0  0  0  0  0  0  0  0  0  0  0
   40.2690   27.1790  -14.5290 C   0  0  0  0  0  0  0  0  0  0  0  0
   41.3510   26.5550  -15.1410 O   0  0  0  0  0  0  0  0  0  0  0  0
   42.4370   26.2140  -14.3780 C   0  0  0  0  0  0  0  0  0  0  0  0
   43.5070   25.6030  -15.0360 C   0  0  0  0  0  0  0  0  0  0  0  0
   44.6440   25.2280  -14.3180 C   0  0  0  0  0  0  0  0  0  0  0  0
   44.7120   25.4620  -12.9420 C   0  0  0  0  0  0  0  0  0  0  0  0
   43.6440   26.0720  -12.2890 C   0  0  0  0  0  0  0  0  0  0  0  0
   43.7760   26.2700  -10.9420 O   0  0  0  0  0  0  0  0  0  0  0  0
   42.5070   26.4480  -13.0090 C   0  0  0  0  0  0  0  0  0  0  0  0
   41.3620   27.0900  -12.3600 C   0  0  0  0  0  0  0  0  0  0  0  0
   41.3440   27.3240  -11.1540 O   0  0  0  0  0  0  0  0  0  0  0  0
   40.2080   27.4560  -13.2140 C   0  0  0  0  0  0  0  0  0  0  0  0
   39.1280   28.0510  -12.5880 O   0  0  0  0  0  0  0  0  0  0  0  0
   39.0520   26.7550  -16.6650 C   0  0  0  0  0  0  0  0  0  0  0  0
   38.0440   27.0330  -17.6070 C   0  0  0  0  0  0  0  0  0  0  0  0
   37.9630   26.1950  -18.8530 C   0  0  0  0  0  0  0  0  0  0  0  0
   33.3456   30.4246  -18.3410 H   0  0  0  0  0  0  0  0  0  0  0  0
   34.5768   30.9633  -19.5329 H   0  0  0  0  0  0  0  0  0  0  0  0
   34.0124   29.2579  -19.5329 H   0  0  0  0  0  0  0  0  0  0  0  0
   36.1111   30.5561  -17.9286 H   0  0  0  0  0  0  0  0  0  0  0  0
   34.9072   29.6525  -16.9224 H   0  0  0  0  0  0  0  0  0  0  0  0
   35.2540   27.6409  -18.2877 H   0  0  0  0  0  0  0  0  0  0  0  0
   36.4514   28.5478  -19.3051 H   0  0  0  0  0  0  0  0  0  0  0  0
   36.5531   29.6307  -15.9526 H   0  0  0  0  0  0  0  0  0  0  0  0
   38.3522   29.1226  -14.3193 H   0  0  0  0  0  0  0  0  0  0  0  0
   43.4538   25.4175  -16.1189 H   0  0  0  0  0  0  0  0  0  0  0  0
   45.4873   24.7478  -14.8360 H   0  0  0  0  0  0  0  0  0  0  0  0
   45.6072   25.1650  -12.3759 H   0  0  0  0  0  0  0  0  0  0  0  0
   43.0270   26.4970  -10.4260 H   0  0  0  0  0  0  0  0  0  0  0  0
   38.7990   27.6980  -11.7850 H   0  0  0  0  0  0  0  0  0  0  0  0
   39.7637   25.9412  -16.8677 H   0  0  0  0  0  0  0  0  0  0  0  0
   37.8606   25.1353  -18.5762 H   0  0  0  0  0  0  0  0  0  0  0  0
   37.0906   26.5047  -19.4471 H   0  0  0  0  0  0  0  0  0  0  0  0
   38.8786   26.3319  -19.4471 H   0  0  0  0  0  0  0  0  0  0  0  0
  1  2  1  0
  2  3  1  0
  3  4  1  0
  4  5  2  0
  5  6  1  0
  6  7  2  0
  7  8  1  0
  8  9  1  0
  9 10  1  0
 10 11  2  0
 11 12  1  0
 12 13  2  0
 13 14  1  0
 14 15  1  0
 14 16  2  0
 16 17  1  0
 17 18  2  0
 17 19  1  0
 19 20  1  0
  7 21  1  0
 21 22  2  0
 22 23  1  0
 22  4  1  0
 19  8  2  0
 16 10  1  0
  1 24  1  0
  1 25  1  0
  1 26  1  0
  2 27  1  0
  2 28  1  0
  3 29  1  0
  3 30  1  0
  5 31  1  0
  6 32  1  0
 11 33  1  0
 12 34  1  0
 13 35  1  0
 15 36  1  0
 20 37  1  0
 21 38  1  0
 23 39  1  0
 23 40  1  0
 23 41  1  0
M  END
>  <meeko>  (3) 
{"is_sidechain": [false], "free_energy": -5.978, "intermolecular_energy": -7.594, "internal_energy": -0.029}

$$$$
