cand_012_out
     RDKit          3D

 40 42  0  0  0  0  0  0  0  0999 V2000
   46.4440   25.8720  -13.5960 C   0  0  0  0  0  0  0  0  0  0  0  0
   45.2760   25.0510  -13.2650 N   0  0  0  0  0  0  0  0  0  0  0  0
   45.5000   23.6070  -13.4030 C   0  0  0  0  0  0  0  0  0  0  0  0
   44.0980   25.4680  -13.9120 C   0  0  0  0  0  0  0  0  0  0  0  0
   43.8060   25.0940  -15.2330 C   0  0  0  0  0  0  0  0  0  0  0  0
   42.6280   25.5070  -15.8630 C   0  0  0  0  0  0  0  0  0  0  0  0
   41.6980   26.3000  -15.1870 C   0  0  0  0  0  0  0  0  0  0  0  0
   40.4570   26.7740  -15.8350 C   0  0  0  0  0  0  0  0  0  0  0  0
   39.6830   27.5730  -15.0020 O   0  0  0  0  0  0  0  0  0  0  0  0
   38.5000   28.0780  -15.4770 C   0  0  0  0  0  0  0  0  0  0  0  0
   37.7620   28.8850  -14.6110 C   0  0  0  0  0  0  0  0  0  0  0  0
   36.5470   29.4310  -15.0330 C   0  0  0  0  0  0  0  0  0  0  0  0
   36.0720   29.1700  -16.3200 C   0  0  0  0  0  0  0  0  0  0  0  0
   36.8110   28.3640  -17.1820 C   0  0  0  0  0  0  0  0  0  0  0  0
   36.2870   28.1490  -18.4280 O   0  0  0  0  0  0  0  0  0  0  0  0
   38.0260   27.8190  -16.7600 C   0  0  0  0  0  0  0  0  0  0  0  0
   38.8340   26.9670  -17.6340 C   0  0  0  0  0  0  0  0  0  0  0  0
   38.4810   26.6860  -18.7780 O   0  0  0  0  0  0  0  0  0  0  0  0
   40.1090   26.4430  -17.0930 C   0  0  0  0  0  0  0  0  0  0  0  0
   40.8570   25.6260  -17.9210 O   0  0  0  0  0  0  0  0  0  0  0  0
   41.9890   26.6830  -13.8690 C   0  0  0  0  0  0  0  0  0  0  0  0
   43.1740   26.2730  -13.2210 C   0  0  0  0  0  0  0  0  0  0  0  0
   43.4370   26.7100  -11.8010 C   0  0  0  0  0  0  0  0  0  0  0  0
   43.8760   25.7040  -10.9890 F   0  0  0  0  0  0  0  0  0  0  0  0
   42.3130   27.1900  -11.1810 F   0  0  0  0  0  0  0  0  0  0  0  0
   44.3480   27.7200  -11.6960 F   0  0  0  0  0  0  0  0  0  0  0  0
   46.9278   26.2121  -12.6685 H   0  0  0  0  0  0  0  0  0  0  0  0
   47.1569   25.2753  -14.1840 H   0  0  0  0  0  0  0  0  0  0  0  0
   46.1239   26.7448  -14.1840 H   0  0  0  0  0  0  0  0  0  0  0  0
   45.5709   23.1499  -12.4050 H   0  0  0  0  0  0  0  0  0  0  0  0
   44.6610   23.1568  -13.9537 H   0  0  0  0  0  0  0  0  0  0  0  0
   46.4360   23.4321  -13.9537 H   0  0  0  0  0  0  0  0  0  0  0  0
   44.5187   24.4629  -15.7841 H   0  0  0  0  0  0  0  0  0  0  0  0
   42.4316   25.2041  -16.9021 H   0  0  0  0  0  0  0  0  0  0  0  0
   38.1360   29.0913  -13.5973 H   0  0  0  0  0  0  0  0  0  0  0  0
   35.9640   30.0671  -14.3507 H   0  0  0  0  0  0  0  0  0  0  0  0
   35.1157   29.6004  -16.6522 H   0  0  0  0  0  0  0  0  0  0  0  0
   36.8440   27.8750  -19.1290 H   0  0  0  0  0  0  0  0  0  0  0  0
   40.8590   24.6990  -17.7860 H   0  0  0  0  0  0  0  0  0  0  0  0
   41.2747   27.3197  -13.3263 H   0  0  0  0  0  0  0  0  0  0  0  0
  1  2  1  0
  2  3  1  0
  2  4  1  0
  4  5  2  0
  5  6  1  0
  6  7  2  0
  7  8  1  0
  8  9  1  0
  9 10  1  0
 10 11  2  0
 11 12  1  0
 12 13  2  0
 13 14  1  0
 14 15  1  0
 14 16  2  0
 16 17  1  0
 17 18  2  0
 17 19  1  0
 19 20  1  0
  7 21  1  0
 21 22  2  0
 22 23  1  0
 23 24  1  0
 23 25  1  0
 23 26  1  0
 22  4  1  0
 19  8  2  0
 16 10  1  0
  1 27  1  0
  1 28  1  0
  1 29  1  0
  3 30  1  0
  3 31  1  0
  3 32  1  0
  5 33  1  0
  6 34  1  0
 11 35  1  0
 12 36  1  0
 13 37  1  0
 15 38  1  0
 20 39  1  0
 21 40  1  0
M  END
>  <meeko>  (1) 
{"is_sidechain": [false], "free_energy": -5.298, "intermolecular_energy": -6.537, "internal_energy": 0.123}

$$$$
cand_012_out
     RDKit          3D

 40 42  0  0  0  0  0  0  0  0999 V2000
   46.1580   25.8870  -13.8650 C   0  0  0  0  0  0  0  0  0  0  0  0
   45.0070   25.0500  -13.5160 N   0  0  0  0  0  0  0  0  0  0  0  0
   45.1700   23.6330  -13.8600 C   0  0  0  0  0  0  0  0  0  0  0  0
   43.7800   25.5680  -13.9720 C   0  0  0  0  0  0  0  0  0  0  0  0
   43.3090   25.3190  -15.2700 C   0  0  0  0  0  0  0  0  0  0  0  0
   42.0840   25.8310  -15.7100 C   0  0  0  0  0  0  0  0  0  0  0  0
   41.2860   26.6000  -14.8600 C   0  0  0  0  0  0  0  0  0  0  0  0
   40.0000   27.1770  -15.3050 C   0  0  0  0  0  0  0  0  0  0  0  0
   39.6160   26.7320  -16.5650 O   0  0  0  0  0  0  0  0  0  0  0  0
   38.4410   27.1920  -17.1020 C   0  0  0  0  0  0  0  0  0  0  0  0
   38.0890   26.7110  -18.3640 C   0  0  0  0  0  0  0  0  0  0  0  0
   36.9050   27.1400  -18.9670 C   0  0  0  0  0  0  0  0  0  0  0  0
   36.0740   28.0490  -18.3100 C   0  0  0  0  0  0  0  0  0  0  0  0
   36.4280   28.5280  -17.0510 C   0  0  0  0  0  0  0  0  0  0  0  0
   35.5680   29.4160  -16.4650 O   0  0  0  0  0  0  0  0  0  0  0  0
   37.6120   28.0980  -16.4470 C   0  0  0  0  0  0  0  0  0  0  0  0
   38.0210   28.5770  -15.1260 C   0  0  0  0  0  0  0  0  0  0  0  0
   37.3470   29.3820  -14.4870 O   0  0  0  0  0  0  0  0  0  0  0  0
   39.2910   28.0560  -14.5720 C   0  0  0  0  0  0  0  0  0  0  0  0
   39.6770   28.5260  -13.3300 O   0  0  0  0  0  0  0  0  0  0  0  0
   41.7560   26.8570  -13.5640 C   0  0  0  0  0  0  0  0  0  0  0  0
   42.9910   26.3470  -13.1060 C   0  0  0  0  0  0  0  0  0  0  0  0
   43.4490   26.6500  -11.7010 C   0  0  0  0  0  0  0  0  0  0  0  0
   44.3930   27.6330  -11.6320 F   0  0  0  0  0  0  0  0  0  0  0  0
   44.0310   25.5680  -11.0930 F   0  0  0  0  0  0  0  0  0  0  0  0
   42.4400   27.0180  -10.8610 F   0  0  0  0  0  0  0  0  0  0  0  0
   46.6458   26.2417  -12.9451 H   0  0  0  0  0  0  0  0  0  0  0  0
   46.8744   25.2974  -14.4560 H   0  0  0  0  0  0  0  0  0  0  0  0
   45.8179   26.7502  -14.4560 H   0  0  0  0  0  0  0  0  0  0  0  0
   45.2385   23.0373  -12.9378 H   0  0  0  0  0  0  0  0  0  0  0  0
   44.3046   23.2970  -14.4501 H   0  0  0  0  0  0  0  0  0  0  0  0
   46.0891   23.5023  -14.4501 H   0  0  0  0  0  0  0  0  0  0  0  0
   43.9154   24.7088  -15.9555 H   0  0  0  0  0  0  0  0  0  0  0  0
   41.7455   25.6258  -16.7363 H   0  0  0  0  0  0  0  0  0  0  0  0
   38.7434   25.9950  -18.8828 H   0  0  0  0  0  0  0  0  0  0  0  0
   36.6266   26.7610  -19.9614 H   0  0  0  0  0  0  0  0  0  0  0  0
   35.1413   28.3864  -18.7857 H   0  0  0  0  0  0  0  0  0  0  0  0
   35.6370   29.6000  -15.5490 H   0  0  0  0  0  0  0  0  0  0  0  0
   39.2670   29.2880  -12.9700 H   0  0  0  0  0  0  0  0  0  0  0  0
   41.1465   27.4723  -12.8859 H   0  0  0  0  0  0  0  0  0  0  0  0
  1  2  1  0
  2  3  1  0
  2  4  1  0
  4  5  2  0
  5  6  1  0
  6  7  2  0
  7  8  1  0
  8  9  1  0
  9 10  1  0
 10 11  2  0
 11 12  1  0
 12 13  2  0
 13 14  1  0
 14 15  1  0
 14 16  2  0
 16 17  1  0
 17 18  2  0
 17 19  1  0
 19 20  1  0
  7 21  1  0
 21 22  2  0
 22 23  1  0
 23 24  1  0
 23 25  1  0
 23 26  1  0
 22  4  1  0
 19  8  2  0
 16 10  1  0
  1 27  1  0
  1 28  1  0
  1 29  1  0
  3 30  1  0
  3 31  1  0
  3 32  1  0
  5 33  1  0
  6 34  1  0
 11 35  1  0
 12 36  1  0
 13 37  1  0
 15 38  1  0
 20 39  1  0
 21 40  1  0
M  END
>  <meeko>  (2) 
{"is_sidechain": [false], "free_energy": -4.046, "intermolecular_energy": -5.168, "internal_energy": 0.299}

$$$$
cand_012_out
     RDKit          3D

 40 42  0  0  0  0  0  0  0  0999 V2000
   45.8520   24.3890  -12.2690 C   0  0  0  0  0  0  0  0  0  0  0  0
   45.5190   24.4000  -13.6960 N   0  0  0  0  0  0  0  0  0  0  0  0
   46.5960   24.8990  -14.5590 C   0  0  0  0  0  0  0  0  0  0  0  0
   44.2860   25.0180  -13.9780 C   0  0  0  0  0  0  0  0  0  0  0  0
   43.1970   24.2960  -14.4920 C   0  0  0  0  0  0  0  0  0  0  0  0
   41.9730   24.9180  -14.7600 C   0  0  0  0  0  0  0  0  0  0  0  0
   41.7970   26.2810  -14.5130 C   0  0  0  0  0  0  0  0  0  0  0  0
   40.5240   26.9710  -14.8120 C   0  0  0  0  0  0  0  0  0  0  0  0
   40.0610   26.7170  -16.0980 O   0  0  0  0  0  0  0  0  0  0  0  0
   38.8890   27.2990  -16.5080 C   0  0  0  0  0  0  0  0  0  0  0  0
   38.4560   27.0070  -17.8020 C   0  0  0  0  0  0  0  0  0  0  0  0
   37.2690   27.5680  -18.2810 C   0  0  0  0  0  0  0  0  0  0  0  0
   36.5180   28.4190  -17.4690 C   0  0  0  0  0  0  0  0  0  0  0  0
   36.9540   28.7080  -16.1780 C   0  0  0  0  0  0  0  0  0  0  0  0
   36.1700   29.5500  -15.4360 O   0  0  0  0  0  0  0  0  0  0  0  0
   38.1390   28.1470  -15.6980 C   0  0  0  0  0  0  0  0  0  0  0  0
   38.6330   28.4250  -14.3480 C   0  0  0  0  0  0  0  0  0  0  0  0
   38.0320   29.1690  -13.5750 O   0  0  0  0  0  0  0  0  0  0  0  0
   39.8980   27.7760  -13.9340 C   0  0  0  0  0  0  0  0  0  0  0  0
   40.3640   28.0580  -12.6630 O   0  0  0  0  0  0  0  0  0  0  0  0
   42.8850   27.0080  -14.0070 C   0  0  0  0  0  0  0  0  0  0  0  0
   44.1250   26.3930  -13.7310 C   0  0  0  0  0  0  0  0  0  0  0  0
   45.2630   27.2200  -13.1840 C   0  0  0  0  0  0  0  0  0  0  0  0
   45.6740   26.8340  -11.9420 F   0  0  0  0  0  0  0  0  0  0  0  0
   44.9330   28.5430  -13.0450 F   0  0  0  0  0  0  0  0  0  0  0  0
   46.3720   27.2220  -13.9780 F   0  0  0  0  0  0  0  0  0  0  0  0
   44.9259   24.4196  -11.6761 H   0  0  0  0  0  0  0  0  0  0  0  0
   46.4104   23.4719  -12.0298 H   0  0  0  0  0  0  0  0  0  0  0  0
   46.4697   25.2672  -12.0298 H   0  0  0  0  0  0  0  0  0  0  0  0
   47.4184   25.2801  -13.9358 H   0  0  0  0  0  0  0  0  0  0  0  0
   46.9660   24.0806  -15.1940 H   0  0  0  0  0  0  0  0  0  0  0  0
   46.2108   25.7104  -15.1940 H   0  0  0  0  0  0  0  0  0  0  0  0
   43.3086   23.2194  -14.6879 H   0  0  0  0  0  0  0  0  0  0  0  0
   41.1404   24.3272  -15.1696 H   0  0  0  0  0  0  0  0  0  0  0  0
   39.0474   26.3370  -18.4434 H   0  0  0  0  0  0  0  0  0  0  0  0
   36.9258   27.3382  -19.3005 H   0  0  0  0  0  0  0  0  0  0  0  0
   35.5842   28.8604  -17.8475 H   0  0  0  0  0  0  0  0  0  0  0  0
   35.9230   30.3850  -15.7810 H   0  0  0  0  0  0  0  0  0  0  0  0
   41.2180   27.7730  -12.4040 H   0  0  0  0  0  0  0  0  0  0  0  0
   42.7685   28.0858  -13.8204 H   0  0  0  0  0  0  0  0  0  0  0  0
  1  2  1  0
  2  3  1  0
  2  4  1  0
  4  5  2  0
  5  6  1  0
  6  7  2  0
  7  8  1  0
  8  9  1  0
  9 10  1  0
 10 11  2  0
 11 12  1  0
 12 13  2  0
 13 14  1  0
 14 15  1  0
 14 16  2  0
 16 17  1  0
 17 18  2  0
 17 19  1  0
 19 20  1  0
  7 21  1  0
 21 22  2  0
 22 23  1  0
 23 24  1  0
 23 25  1  0
 23 26  1  0
 22  4  1  0
 19  8  2  0
 16 10  1  0
  1 27  1  0
  1 28  1  0
  1 29  1  0
  3 30  1  0
  3 31  1  0
  3 32  1  0
  5 33  1  0
  6 34  1  0
 11 35  1  0
 12 36  1  0
 13 37  1  0
 15 38  1  0
 20 39  1  0
 21 40  1  0
M  END
>  <meeko>  (3) 
{"is_sidechain": [false], "free_energy": -3.44, "intermolecular_energy": -6.416, "internal_energy": 2.295}

$$$$
