@<TRIPOS>MOLECULE
MOL
   84    89     1     0     0
SMALL
bcc


@<TRIPOS>ATOM
      1 P1          24.5260    35.3410   -18.8620 p5         1 MOL       1.641800
      2 O1          23.7150    34.1340   -18.4350 o          1 MOL      -0.903500
      3 O2          25.6520    35.9380   -18.1090 o          1 MOL      -0.903500
      4 O3          23.4420    36.4520   -19.1040 os         1 MOL      -0.590200
      5 C1          22.0840    36.0870   -19.2980 c3         1 MOL       0.190400
      6 C2          21.1890    37.0890   -18.5640 c5         1 MOL       0.086100
      7 O4          19.8440    36.8320   -18.9740 os         1 MOL      -0.437600
      8 C3          21.2280    36.8730   -17.0360 c5         1 MOL       0.093100
      9 O5          21.3870    38.1070   -16.3300 oh         1 MOL      -0.613800
     10 C4          19.8780    36.2470   -16.7340 c5         1 MOL       0.071100
     11 O6          19.3440    36.6250   -15.5130 oh         1 MOL      -0.585800
     12 C5          18.9940    36.8070   -17.8200 c5         1 MOL       0.217800
     13 N1          17.8380    35.9740   -18.2090 na         1 MOL      -0.266000
     14 C6          17.6490    34.6140   -18.2770 cc         1 MOL       0.462700
     15 N2          16.3770    34.3610   -18.7610 nd         1 MOL      -0.581100
     16 C7          15.8300    35.5670   -19.0440 ca         1 MOL      -0.195200
     17 C8          14.6140    35.9280   -19.6110 ca         1 MOL       0.702200
     18 N3          13.7770    34.9850   -20.0980 nv         1 MOL      -0.929500
     19 N4          14.3480    37.2620   -19.7660 nb         1 MOL      -0.799000
     20 C9          15.2080    38.2530   -19.3960 ca         1 MOL       0.646900
     21 N5          16.4400    37.9260   -18.8490 nb         1 MOL      -0.722000
     22 C10         16.7160    36.5770   -18.6670 ca         1 MOL       0.440800
     23 N6          33.8590    33.1960   -17.8800 nc         1 MOL      -0.414400
     24 C11         35.0780    33.7890   -17.9440 c          1 MOL       0.851900
     25 O7          35.2520    34.4500   -18.9180 o          1 MOL      -0.623500
     26 N7          36.0250    33.6480   -16.9400 ns         1 MOL      -0.623500
     27 C12         35.7300    32.8220   -15.8340 c          1 MOL       0.614000
     28 O8          36.5430    32.6100   -14.8790 o          1 MOL      -0.625500
     29 C13         34.5000    32.1870   -15.8170 cd         1 MOL       0.267800
     30 N8          34.1760    31.3420   -14.7850 nc         1 MOL      -0.527000
     31 C14         32.8760    30.8680   -14.6560 ca         1 MOL       0.265600
     32 C15         32.5150    30.3930   -13.3860 ca         1 MOL      -0.131300
     33 C16         31.1840    30.3370   -13.0130 ca         1 MOL      -0.122300
     34 C17         30.8720    29.5740   -11.7310 c3         1 MOL      -0.042800
     35 C18         30.1630    30.7540   -13.9070 ca         1 MOL      -0.000300
     36 C19         28.7330    30.5990   -13.5030 c3         1 MOL      -0.078800
     37 C20         30.4830    31.2560   -15.1950 ca         1 MOL      -0.152000
     38 C21         31.8810    31.2900   -15.5590 ca         1 MOL       0.009400
     39 N9          32.3140    31.8300   -16.7580 na         1 MOL      -0.057100
     40 C22         33.5540    32.4110   -16.8160 cd         1 MOL       0.087400
     41 C23         31.3090    32.0890   -17.8230 c3         1 MOL      -0.026700
     42 C24         30.8600    33.5260   -17.8540 c3         1 MOL       0.152100
     43 O9          30.4400    33.7530   -16.5420 oh         1 MOL      -0.630800
     44 C25         29.7380    33.5350   -18.9090 c3         1 MOL       0.090100
     45 O10         30.2820    33.0130   -20.1390 oh         1 MOL      -0.638800
     46 C26         29.1980    34.8870   -19.2820 c3         1 MOL       0.098100
     47 O11         28.9020    35.6470   -18.1420 oh         1 MOL      -0.610800
     48 C27         27.9050    34.6360   -20.0670 c3         1 MOL       0.165400
     49 O12         27.4150    35.8970   -20.3880 os         1 MOL      -0.596200
     50 P2          26.0470    36.0170   -21.1600 p5         1 MOL       1.601800
     51 O13         25.8630    37.5290   -21.2350 o          1 MOL      -0.869000
     52 O14         26.2860    35.4000   -22.5710 o          1 MOL      -0.869000
     53 O15         25.0070    35.1470   -20.3740 os         1 MOL      -0.818800
     54 H1          21.9170    35.1050   -18.9080 h1         1 MOL       0.047700
     55 H2          21.8530    36.0940   -20.3430 h1         1 MOL       0.047700
     56 H3          21.5250    38.0790   -18.7910 h1         1 MOL       0.065700
     57 H4          22.0540    36.2660   -16.7300 h1         1 MOL       0.138700
     58 H5          20.6630    38.7090   -16.5640 ho         1 MOL       0.393000
     59 H6          19.9610    35.1810   -16.6960 h1         1 MOL       0.169700
     60 H7          19.2440    37.5900   -15.4880 ho         1 MOL       0.398000
     61 H8          18.5930    37.7350   -17.4680 h2         1 MOL       0.079700
     62 H9          18.3430    33.8980   -18.0110 h5         1 MOL       0.176800
     63 H10         13.9860    34.0310   -19.9760 hn         1 MOL       0.413800
     64 H11         12.9580    35.2520   -20.5750 hn         1 MOL       0.413800
     65 H12         14.9440    39.2420   -19.5220 h5         1 MOL       0.029100
     66 H13         36.8890    34.1170   -16.9980 hn         1 MOL       0.327500
     67 H14         33.2460    30.0840   -12.7270 ha         1 MOL       0.139000
     68 H15         31.7830    29.3610   -11.2120 hc         1 MOL       0.038033
     69 H16         30.3770    28.6570   -11.9730 hc         1 MOL       0.038033
     70 H17         30.2370    30.1680   -11.1080 hc         1 MOL       0.038033
     71 H18         28.6840    30.2100   -12.5070 hc         1 MOL       0.064700
     72 H19         28.2440    29.9240   -14.1740 hc         1 MOL       0.064700
     73 H20         28.2470    31.5520   -13.5390 hc         1 MOL       0.064700
     74 H21         29.7500    31.5820   -15.8430 ha         1 MOL       0.246000
     75 H22         30.4560    31.4670   -17.6490 h1         1 MOL       0.106700
     76 H23         31.7690    31.8710   -18.7640 h1         1 MOL       0.106700
     77 H24         31.5660    34.2850   -18.1200 h1         1 MOL       0.083700
     78 H25         29.7980    33.0720   -16.2850 ho         1 MOL       0.456000
     79 H26         28.9450    32.9690   -18.4670 h1         1 MOL       0.086700
     80 H27         30.9900    33.5970   -20.4530 ho         1 MOL       0.462000
     81 H28         29.9220    35.4290   -19.8540 h1         1 MOL       0.058700
     82 H29         28.2460    35.1780   -17.6020 ho         1 MOL       0.422000
     83 H30         27.1990    34.1030   -19.4650 h1         1 MOL       0.027200
     84 H31         28.0790    34.0440   -20.9410 h1         1 MOL       0.027200
@<TRIPOS>BOND
     1     1     2 1   
     2     3     1 1   
     3     4     1 1   
     4     5     4 1   
     5     5    54 1   
     6     5    55 1   
     7     6     5 1   
     8     6    56 1   
     9     7     6 1   
    10     8     6 1   
    11     8     9 1   
    12     8    57 1   
    13     9    58 1   
    14    10     8 1   
    15    10    11 1   
    16    10    59 1   
    17    11    60 1   
    18    12    10 1   
    19    12     7 1   
    20    12    13 1   
    21    12    61 1   
    22    14    13 1   
    23    14    62 1   
    24    15    14 2   
    25    16    15 1   
    26    17    16 ar  
    27    18    17 1   
    28    18    63 1   
    29    18    64 1   
    30    19    17 ar  
    31    20    19 ar  
    32    20    65 1   
    33    21    20 ar  
    34    22    16 ar  
    35    22    21 ar  
    36    22    13 1   
    37    24    23 1   
    38    25    24 2   
    39    26    24 1   
    40    26    66 1   
    41    27    26 1   
    42    28    27 2   
    43    29    27 1   
    44    30    29 2   
    45    31    30 1   
    46    32    31 ar  
    47    32    67 1   
    48    33    32 ar  
    49    34    33 1   
    50    34    68 1   
    51    34    69 1   
    52    34    70 1   
    53    35    33 ar  
    54    36    35 1   
    55    36    71 1   
    56    36    72 1   
    57    36    73 1   
    58    37    35 ar  
    59    37    74 1   
    60    38    37 ar  
    61    38    31 ar  
    62    39    38 1   
    63    40    39 1   
    64    40    29 1   
    65    40    23 2   
    66    41    39 1   
    67    41    75 1   
    68    41    76 1   
    69    42    41 1   
    70    42    43 1   
    71    42    77 1   
    72    43    78 1   
    73    44    42 1   
    74    44    45 1   
    75    44    79 1   
    76    45    80 1   
    77    46    44 1   
    78    46    47 1   
    79    46    81 1   
    80    47    82 1   
    81    48    46 1   
    82    48    83 1   
    83    48    84 1   
    84    49    48 1   
    85    50    49 1   
    86    50    51 1   
    87    52    50 1   
    88    53    50 1   
    89    53     1 1   
@<TRIPOS>SUBSTRUCTURE
     1 MOL         1 TEMP              0 ****  ****    0 ROOT
