cand_036_out
     RDKit          3D

 35 37  0  0  0  0  0  0  0  0999 V2000
  181.9790   15.0630   42.7490 C   0  0  0  0  0  0  0  0  0  0  0  0
  181.3010   16.0550   43.6530 C   0  0  0  0  0  0  0  0  0  0  0  0
  181.6040   17.4180   43.5280 C   0  0  0  0  0  0  0  0  0  0  0  0
  180.9940   18.3670   44.3510 C   0  0  0  0  0  0  0  0  0  0  0  0
  180.0680   17.9800   45.3250 C   0  0  0  0  0  0  0  0  0  0  0  0
  179.3880   18.9670   46.1900 C   0  0  0  0  0  0  0  0  0  0  0  0
  178.0060   18.8230   46.1900 O   0  0  0  0  0  0  0  0  0  0  0  0
  177.2490   19.6760   46.9520 C   0  0  0  0  0  0  0  0  0  0  0  0
  175.8650   19.5050   46.9100 C   0  0  0  0  0  0  0  0  0  0  0  0
  175.0370   20.3400   47.6640 C   0  0  0  0  0  0  0  0  0  0  0  0
  175.5930   21.3430   48.4600 C   0  0  0  0  0  0  0  0  0  0  0  0
  176.9750   21.5120   48.5000 C   0  0  0  0  0  0  0  0  0  0  0  0
  177.4520   22.5140   49.3000 O   0  0  0  0  0  0  0  0  0  0  0  0
  177.8030   20.6770   47.7440 C   0  0  0  0  0  0  0  0  0  0  0  0
  179.2600   20.8200   47.7570 C   0  0  0  0  0  0  0  0  0  0  0  0
  179.8230   21.6760   48.4370 O   0  0  0  0  0  0  0  0  0  0  0  0
  180.0470   19.8900   46.9150 C   0  0  0  0  0  0  0  0  0  0  0  0
  181.4220   20.0260   46.9460 O   0  0  0  0  0  0  0  0  0  0  0  0
  179.7580   16.6150   45.4420 C   0  0  0  0  0  0  0  0  0  0  0  0
  180.3620   15.6480   44.6210 C   0  0  0  0  0  0  0  0  0  0  0  0
  179.9970   14.2000   44.7970 C   0  0  0  0  0  0  0  0  0  0  0  0
  182.4962   14.3063   43.3573 H   0  0  0  0  0  0  0  0  0  0  0  0
  181.2269   14.5717   42.1142 H   0  0  0  0  0  0  0  0  0  0  0  0
  182.7099   15.5853   42.1142 H   0  0  0  0  0  0  0  0  0  0  0  0
  182.3324   17.7445   42.7711 H   0  0  0  0  0  0  0  0  0  0  0  0
  181.2448   19.4314   44.2318 H   0  0  0  0  0  0  0  0  0  0  0  0
  175.4265   18.7138   46.2841 H   0  0  0  0  0  0  0  0  0  0  0  0
  173.9456   20.2070   47.6305 H   0  0  0  0  0  0  0  0  0  0  0  0
  174.9405   21.9990   49.0549 H   0  0  0  0  0  0  0  0  0  0  0  0
  178.2170   22.9920   49.0450 H   0  0  0  0  0  0  0  0  0  0  0  0
  181.9520   19.5610   46.3280 H   0  0  0  0  0  0  0  0  0  0  0  0
  179.0235   16.2949   46.1957 H   0  0  0  0  0  0  0  0  0  0  0  0
  179.9377   13.9646   45.8699 H   0  0  0  0  0  0  0  0  0  0  0  0
  179.0222   14.0076   44.3249 H   0  0  0  0  0  0  0  0  0  0  0  0
  180.7641   13.5685   44.3249 H   0  0  0  0  0  0  0  0  0  0  0  0
  1  2  1  0
  2  3  2  0
  3  4  1  0
  4  5  2  0
  5  6  1  0
  6  7  1  0
  7  8  1  0
  8  9  2  0
  9 10  1  0
 10 11  2  0
 11 12  1  0
 12 13  1  0
 12 14  2  0
 14 15  1  0
 15 16  2  0
 15 17  1  0
 17 18  1  0
  5 19  1  0
 19 20  2  0
 20 21  1  0
 20  2  1  0
 17  6  2  0
 14  8  1  0
  1 22  1  0
  1 23  1  0
  1 24  1  0
  3 25  1  0
  4 26  1  0
  9 27  1  0
 10 28  1  0
 11 29  1  0
 13 30  1  0
 18 31  1  0
 19 32  1  0
 21 33  1  0
 21 34  1  0
 21 35  1  0
M  END
>  <meeko>  (1) 
{"is_sidechain": [false], "free_energy": -7.696, "intermolecular_energy": -8.596, "internal_energy": -0.106}

$$$$
cand_036_out
     RDKit          3D

 35 37  0  0  0  0  0  0  0  0999 V2000
  171.8060   24.9950   49.5300 C   0  0  0  0  0  0  0  0  0  0  0  0
  173.2010   24.4380   49.6040 C   0  0  0  0  0  0  0  0  0  0  0  0
  173.4120   23.0750   49.3570 C   0  0  0  0  0  0  0  0  0  0  0  0
  174.6940   22.5240   49.4170 C   0  0  0  0  0  0  0  0  0  0  0  0
  175.8000   23.3200   49.7320 C   0  0  0  0  0  0  0  0  0  0  0  0
  177.1700   22.7670   49.7760 C   0  0  0  0  0  0  0  0  0  0  0  0
  177.5820   22.2490   48.5540 O   0  0  0  0  0  0  0  0  0  0  0  0
  178.8360   21.7030   48.4530 C   0  0  0  0  0  0  0  0  0  0  0  0
  179.2020   21.1800   47.2120 C   0  0  0  0  0  0  0  0  0  0  0  0
  180.4660   20.6110   47.0410 C   0  0  0  0  0  0  0  0  0  0  0  0
  181.3640   20.5660   48.1100 C   0  0  0  0  0  0  0  0  0  0  0  0
  180.9960   21.0880   49.3480 C   0  0  0  0  0  0  0  0  0  0  0  0
  181.9220   21.0110   50.3510 O   0  0  0  0  0  0  0  0  0  0  0  0
  179.7300   21.6560   49.5180 C   0  0  0  0  0  0  0  0  0  0  0  0
  179.3040   22.2160   50.8020 C   0  0  0  0  0  0  0  0  0  0  0  0
  180.0390   22.2180   51.7870 O   0  0  0  0  0  0  0  0  0  0  0  0
  177.9390   22.7880   50.8800 C   0  0  0  0  0  0  0  0  0  0  0  0
  177.5520   23.3250   52.0930 O   0  0  0  0  0  0  0  0  0  0  0  0
  175.5890   24.6880   49.9700 C   0  0  0  0  0  0  0  0  0  0  0  0
  174.3050   25.2580   49.9110 C   0  0  0  0  0  0  0  0  0  0  0  0
  174.1390   26.7280   50.1830 C   0  0  0  0  0  0  0  0  0  0  0  0
  171.4185   25.1497   50.5478 H   0  0  0  0  0  0  0  0  0  0  0  0
  171.8226   25.9555   48.9940 H   0  0  0  0  0  0  0  0  0  0  0  0
  171.1565   24.2872   48.9940 H   0  0  0  0  0  0  0  0  0  0  0  0
  172.5555   22.4296   49.1123 H   0  0  0  0  0  0  0  0  0  0  0  0
  174.8354   21.4521   49.2143 H   0  0  0  0  0  0  0  0  0  0  0  0
  178.4958   21.2159   46.3694 H   0  0  0  0  0  0  0  0  0  0  0  0
  180.7547   20.1978   46.0633 H   0  0  0  0  0  0  0  0  0  0  0  0
  182.3600   20.1192   47.9745 H   0  0  0  0  0  0  0  0  0  0  0  0
  181.6740   21.2040   51.2340 H   0  0  0  0  0  0  0  0  0  0  0  0
  176.9900   24.0750   52.1160 H   0  0  0  0  0  0  0  0  0  0  0  0
  176.4500   25.3297   50.2086 H   0  0  0  0  0  0  0  0  0  0  0  0
  174.1196   26.9000   51.2693 H   0  0  0  0  0  0  0  0  0  0  0  0
  174.9805   27.2803   49.7393 H   0  0  0  0  0  0  0  0  0  0  0  0
  173.1956   27.0788   49.7393 H   0  0  0  0  0  0  0  0  0  0  0  0
  1  2  1  0
  2  3  2  0
  3  4  1  0
  4  5  2  0
  5  6  1  0
  6  7  1  0
  7  8  1  0
  8  9  2  0
  9 10  1  0
 10 11  2  0
 11 12  1  0
 12 13  1  0
 12 14  2  0
 14 15  1  0
 15 16  2  0
 15 17  1  0
 17 18  1  0
  5 19  1  0
 19 20  2  0
 20 21  1  0
 20  2  1  0
 17  6  2  0
 14  8  1  0
  1 22  1  0
  1 23  1  0
  1 24  1  0
  3 25  1  0
  4 26  1  0
  9 27  1  0
 10 28  1  0
 11 29  1  0
 13 30  1  0
 18 31  1  0
 19 32  1  0
 21 33  1  0
 21 34  1  0
 21 35  1  0
M  END
>  <meeko>  (2) 
{"is_sidechain": [false], "free_energy": -7.475, "intermolecular_energy": -8.288, "internal_energy": -0.167}

$$$$
cand_036_out
     RDKit          3D

 35 37  0  0  0  0  0  0  0  0999 V2000
  172.3380   24.6230   49.8340 C   0  0  0  0  0  0  0  0  0  0  0  0
  173.6980   24.0220   49.6040 C   0  0  0  0  0  0  0  0  0  0  0  0
  173.7980   22.6840   49.1990 C   0  0  0  0  0  0  0  0  0  0  0  0
  175.0440   22.0930   48.9760 C   0  0  0  0  0  0  0  0  0  0  0  0
  176.2240   22.8220   49.1580 C   0  0  0  0  0  0  0  0  0  0  0  0
  177.5530   22.2280   48.9030 C   0  0  0  0  0  0  0  0  0  0  0  0
  177.6920   21.7540   47.6040 O   0  0  0  0  0  0  0  0  0  0  0  0
  178.8790   21.1770   47.2310 C   0  0  0  0  0  0  0  0  0  0  0  0
  178.9690   20.7000   45.9230 C   0  0  0  0  0  0  0  0  0  0  0  0
  180.1510   20.1030   45.4780 C   0  0  0  0  0  0  0  0  0  0  0  0
  181.2420   19.9840   46.3410 C   0  0  0  0  0  0  0  0  0  0  0  0
  181.1490   20.4600   47.6470 C   0  0  0  0  0  0  0  0  0  0  0  0
  182.2550   20.3110   48.4390 O   0  0  0  0  0  0  0  0  0  0  0  0
  179.9660   21.0560   48.0910 C   0  0  0  0  0  0  0  0  0  0  0  0
  179.8270   21.5700   49.4550 C   0  0  0  0  0  0  0  0  0  0  0  0
  180.7450   21.5070   50.2710 O   0  0  0  0  0  0  0  0  0  0  0  0
  178.5290   22.1770   49.8290 C   0  0  0  0  0  0  0  0  0  0  0  0
  178.4130   22.6700   51.1150 O   0  0  0  0  0  0  0  0  0  0  0  0
  176.1210   24.1650   49.5540 C   0  0  0  0  0  0  0  0  0  0  0  0
  174.8750   24.7750   49.7810 C   0  0  0  0  0  0  0  0  0  0  0  0
  174.8270   26.2150   50.2110 C   0  0  0  0  0  0  0  0  0  0  0  0
  172.1516   24.7054   50.9150 H   0  0  0  0  0  0  0  0  0  0  0  0
  172.2971   25.6230   49.3776 H   0  0  0  0  0  0  0  0  0  0  0  0
  171.5710   23.9800   49.3776 H   0  0  0  0  0  0  0  0  0  0  0  0
  172.8828   22.0911   49.0547 H   0  0  0  0  0  0  0  0  0  0  0  0
  175.0979   21.0427   48.6537 H   0  0  0  0  0  0  0  0  0  0  0  0
  178.1098   20.7939   45.2426 H   0  0  0  0  0  0  0  0  0  0  0  0
  180.2222   19.7264   44.4469 H   0  0  0  0  0  0  0  0  0  0  0  0
  182.1733   19.5153   45.9904 H   0  0  0  0  0  0  0  0  0  0  0  0
  182.6200   21.0530   48.8790 H   0  0  0  0  0  0  0  0  0  0  0  0
  179.1830   22.8580   51.6160 H   0  0  0  0  0  0  0  0  0  0  0  0
  177.0392   24.7553   49.6902 H   0  0  0  0  0  0  0  0  0  0  0  0
  174.8252   26.2697   51.3096 H   0  0  0  0  0  0  0  0  0  0  0  0
  175.7080   26.7443   49.8190 H   0  0  0  0  0  0  0  0  0  0  0  0
  173.9127   26.6844   49.8190 H   0  0  0  0  0  0  0  0  0  0  0  0
  1  2  1  0
  2  3  2  0
  3  4  1  0
  4  5  2  0
  5  6  1  0
  6  7  1  0
  7  8  1  0
  8  9  2  0
  9 10  1  0
 10 11  2  0
 11 12  1  0
 12 13  1  0
 12 14  2  0
 14 15  1  0
 15 16  2  0
 15 17  1  0
 17 18  1  0
  5 19  1  0
 19 20  2  0
 20 21  1  0
 20  2  1  0
 17  6  2  0
 14  8  1  0
  1 22  1  0
  1 23  1  0
  1 24  1  0
  3 25  1  0
  4 26  1  0
  9 27  1  0
 10 28  1  0
 11 29  1  0
 13 30  1  0
 18 31  1  0
 19 32  1  0
 21 33  1  0
 21 34  1  0
 21 35  1  0
M  END
>  <meeko>  (3) 
{"is_sidechain": [false], "free_energy": -7.326, "intermolecular_energy": -8.158, "internal_energy": -0.131}

$$$$
cand_036_out
     RDKit          3D

 35 37  0  0  0  0  0  0  0  0999 V2000
  185.0600   23.4520   47.9880 C   0  0  0  0  0  0  0  0  0  0  0  0
  183.6290   23.0680   48.2470 C   0  0  0  0  0  0  0  0  0  0  0  0
  183.3430   21.8070   48.7880 C   0  0  0  0  0  0  0  0  0  0  0  0
  182.0260   21.4170   49.0410 C   0  0  0  0  0  0  0  0  0  0  0  0
  180.9590   22.2730   48.7540 C   0  0  0  0  0  0  0  0  0  0  0  0
  179.5580   21.8950   49.0370 C   0  0  0  0  0  0  0  0  0  0  0  0
  178.8480   21.5550   47.8910 O   0  0  0  0  0  0  0  0  0  0  0  0
  177.5340   21.1830   48.0100 C   0  0  0  0  0  0  0  0  0  0  0  0
  176.8550   20.8650   46.8330 C   0  0  0  0  0  0  0  0  0  0  0  0
  175.5150   20.4760   46.8840 C   0  0  0  0  0  0  0  0  0  0  0  0
  174.8540   20.4040   48.1120 C   0  0  0  0  0  0  0  0  0  0  0  0
  175.5330   20.7220   49.2860 C   0  0  0  0  0  0  0  0  0  0  0  0
  174.8250   20.6310   50.4530 O   0  0  0  0  0  0  0  0  0  0  0  0
  176.8740   21.1120   49.2340 C   0  0  0  0  0  0  0  0  0  0  0  0
  177.6240   21.4550   50.4430 C   0  0  0  0  0  0  0  0  0  0  0  0
  177.1130   21.4100   51.5600 O   0  0  0  0  0  0  0  0  0  0  0  0
  179.0390   21.8630   50.2780 C   0  0  0  0  0  0  0  0  0  0  0  0
  179.7410   22.1710   51.4280 O   0  0  0  0  0  0  0  0  0  0  0  0
  181.2470   23.5400   48.2210 C   0  0  0  0  0  0  0  0  0  0  0  0
  182.5670   23.9480   47.9620 C   0  0  0  0  0  0  0  0  0  0  0  0
  182.8150   25.3140   47.3820 C   0  0  0  0  0  0  0  0  0  0  0  0
  185.5813   23.5919   48.9465 H   0  0  0  0  0  0  0  0  0  0  0  0
  185.5554   22.6550   47.4141 H   0  0  0  0  0  0  0  0  0  0  0  0
  185.0898   24.3899   47.4141 H   0  0  0  0  0  0  0  0  0  0  0  0
  184.1671   21.1151   49.0164 H   0  0  0  0  0  0  0  0  0  0  0  0
  181.8261   20.4245   49.4712 H   0  0  0  0  0  0  0  0  0  0  0  0
  177.3753   20.9208   45.8654 H   0  0  0  0  0  0  0  0  0  0  0  0
  174.9796   20.2261   45.9562 H   0  0  0  0  0  0  0  0  0  0  0  0
  173.7986   20.0966   48.1522 H   0  0  0  0  0  0  0  0  0  0  0  0
  174.3750   19.8380   50.6670 H   0  0  0  0  0  0  0  0  0  0  0  0
  180.6770   22.2170   51.4070 H   0  0  0  0  0  0  0  0  0  0  0  0
  180.4192   24.2301   48.0008 H   0  0  0  0  0  0  0  0  0  0  0  0
  182.9469   26.0402   48.1976 H   0  0  0  0  0  0  0  0  0  0  0  0
  183.7234   25.2898   46.7622 H   0  0  0  0  0  0  0  0  0  0  0  0
  181.9560   25.6107   46.7622 H   0  0  0  0  0  0  0  0  0  0  0  0
  1  2  1  0
  2  3  2  0
  3  4  1  0
  4  5  2  0
  5  6  1  0
  6  7  1  0
  7  8  1  0
  8  9  2  0
  9 10  1  0
 10 11  2  0
 11 12  1  0
 12 13  1  0
 12 14  2  0
 14 15  1  0
 15 16  2  0
 15 17  1  0
 17 18  1  0
  5 19  1  0
 19 20  2  0
 20 21  1  0
 20  2  1  0
 17  6  2  0
 14  8  1  0
  1 22  1  0
  1 23  1  0
  1 24  1  0
  3 25  1  0
  4 26  1  0
  9 27  1  0
 10 28  1  0
 11 29  1  0
 13 30  1  0
 18 31  1  0
 19 32  1  0
 21 33  1  0
 21 34  1  0
 21 35  1  0
M  END
>  <meeko>  (4) 
{"is_sidechain": [false], "free_energy": -7.251, "intermolecular_energy": -7.926, "internal_energy": -0.278}

$$$$
cand_036_out
     RDKit          3D

 35 37  0  0  0  0  0  0  0  0999 V2000
  176.4800   18.3840   46.2340 C   0  0  0  0  0  0  0  0  0  0  0  0
  176.3820   19.4660   47.2740 C   0  0  0  0  0  0  0  0  0  0  0  0
  175.2830   19.4870   48.1430 C   0  0  0  0  0  0  0  0  0  0  0  0
  175.1600   20.4780   49.1200 C   0  0  0  0  0  0  0  0  0  0  0  0
  176.1280   21.4780   49.2500 C   0  0  0  0  0  0  0  0  0  0  0  0
  176.0350   22.5220   50.2930 C   0  0  0  0  0  0  0  0  0  0  0  0
  175.5000   23.7130   49.8180 O   0  0  0  0  0  0  0  0  0  0  0  0
  175.3570   24.7690   50.6820 C   0  0  0  0  0  0  0  0  0  0  0  0
  174.8310   25.9500   50.1590 C   0  0  0  0  0  0  0  0  0  0  0  0
  174.6570   27.0620   50.9870 C   0  0  0  0  0  0  0  0  0  0  0  0
  175.0090   26.9920   52.3360 C   0  0  0  0  0  0  0  0  0  0  0  0
  175.5340   25.8110   52.8560 C   0  0  0  0  0  0  0  0  0  0  0  0
  175.8570   25.8110   54.1850 O   0  0  0  0  0  0  0  0  0  0  0  0
  175.7080   24.6990   52.0270 C   0  0  0  0  0  0  0  0  0  0  0  0
  176.2570   23.4400   52.5330 C   0  0  0  0  0  0  0  0  0  0  0  0
  176.5840   23.2990   53.7090 O   0  0  0  0  0  0  0  0  0  0  0  0
  176.4090   22.3240   51.5710 C   0  0  0  0  0  0  0  0  0  0  0  0
  176.9160   21.1350   52.0620 O   0  0  0  0  0  0  0  0  0  0  0  0
  177.2340   21.4500   48.3850 C   0  0  0  0  0  0  0  0  0  0  0  0
  177.3730   20.4590   47.3980 C   0  0  0  0  0  0  0  0  0  0  0  0
  178.5750   20.4840   46.4940 C   0  0  0  0  0  0  0  0  0  0  0  0
  176.5686   17.4060   46.7296 H   0  0  0  0  0  0  0  0  0  0  0  0
  175.5771   18.3963   45.6059 H   0  0  0  0  0  0  0  0  0  0  0  0
  177.3660   18.5583   45.6059 H   0  0  0  0  0  0  0  0  0  0  0  0
  174.5066   18.7128   48.0547 H   0  0  0  0  0  0  0  0  0  0  0  0
  174.2913   20.4713   49.7948 H   0  0  0  0  0  0  0  0  0  0  0  0
  174.5535   26.0060   49.0961 H   0  0  0  0  0  0  0  0  0  0  0  0
  174.2421   27.9938   50.5753 H   0  0  0  0  0  0  0  0  0  0  0  0
  174.8721   27.8678   52.9873 H   0  0  0  0  0  0  0  0  0  0  0  0
  176.3880   25.1250   54.5380 H   0  0  0  0  0  0  0  0  0  0  0  0
  177.3480   21.1190   52.8940 H   0  0  0  0  0  0  0  0  0  0  0  0
  178.0107   22.2228   48.4823 H   0  0  0  0  0  0  0  0  0  0  0  0
  179.4911   20.5031   47.1026 H   0  0  0  0  0  0  0  0  0  0  0  0
  178.5751   19.5857   45.8592 H   0  0  0  0  0  0  0  0  0  0  0  0
  178.5378   21.3816   45.8592 H   0  0  0  0  0  0  0  0  0  0  0  0
  1  2  1  0
  2  3  2  0
  3  4  1  0
  4  5  2  0
  5  6  1  0
  6  7  1  0
  7  8  1  0
  8  9  2  0
  9 10  1  0
 10 11  2  0
 11 12  1  0
 12 13  1  0
 12 14  2  0
 14 15  1  0
 15 16  2  0
 15 17  1  0
 17 18  1  0
  5 19  1  0
 19 20  2  0
 20 21  1  0
 20  2  1  0
 17  6  2  0
 14  8  1  0
  1 22  1  0
  1 23  1  0
  1 24  1  0
  3 25  1  0
  4 26  1  0
  9 27  1  0
 10 28  1  0
 11 29  1  0
 13 30  1  0
 18 31  1  0
 19 32  1  0
 21 33  1  0
 21 34  1  0
 21 35  1  0
M  END
>  <meeko>  (5) 
{"is_sidechain": [false], "free_energy": -7.239, "intermolecular_energy": -7.878, "internal_energy": -0.313}

$$$$
cand_036_out
     RDKit          3D

 35 37  0  0  0  0  0  0  0  0999 V2000
  181.3160   20.7140   45.9040 C   0  0  0  0  0  0  0  0  0  0  0  0
  180.3000   21.1400   46.9280 C   0  0  0  0  0  0  0  0  0  0  0  0
  180.5630   22.2560   47.7340 C   0  0  0  0  0  0  0  0  0  0  0  0
  179.6420   22.6790   48.6960 C   0  0  0  0  0  0  0  0  0  0  0  0
  178.4370   21.9940   48.8830 C   0  0  0  0  0  0  0  0  0  0  0  0
  177.4350   22.4380   49.8740 C   0  0  0  0  0  0  0  0  0  0  0  0
  176.3010   22.9870   49.2870 O   0  0  0  0  0  0  0  0  0  0  0  0
  175.2880   23.4400   50.0940 C   0  0  0  0  0  0  0  0  0  0  0  0
  174.1760   23.9980   49.4620 C   0  0  0  0  0  0  0  0  0  0  0  0
  173.1090   24.4760   50.2260 C   0  0  0  0  0  0  0  0  0  0  0  0
  173.1540   24.3970   51.6190 C   0  0  0  0  0  0  0  0  0  0  0  0
  174.2660   23.8400   52.2470 C   0  0  0  0  0  0  0  0  0  0  0  0
  174.2450   23.7940   53.6140 O   0  0  0  0  0  0  0  0  0  0  0  0
  175.3340   23.3620   51.4820 C   0  0  0  0  0  0  0  0  0  0  0  0
  176.5210   22.7700   52.1020 C   0  0  0  0  0  0  0  0  0  0  0  0
  176.6310   22.6600   53.3210 O   0  0  0  0  0  0  0  0  0  0  0  0
  177.6000   22.3010   51.2030 C   0  0  0  0  0  0  0  0  0  0  0  0
  178.7100   21.7320   51.7980 O   0  0  0  0  0  0  0  0  0  0  0  0
  178.1710   20.8830   48.0670 C   0  0  0  0  0  0  0  0  0  0  0  0
  179.0870   20.4450   47.0940 C   0  0  0  0  0  0  0  0  0  0  0  0
  178.7510   19.2420   46.2560 C   0  0  0  0  0  0  0  0  0  0  0  0
  182.2148   20.3371   46.4140 H   0  0  0  0  0  0  0  0  0  0  0  0
  180.8908   19.9184   45.2746 H   0  0  0  0  0  0  0  0  0  0  0  0
  181.5854   21.5749   45.2746 H   0  0  0  0  0  0  0  0  0  0  0  0
  181.5071   22.8063   47.6076 H   0  0  0  0  0  0  0  0  0  0  0  0
  179.8673   23.5610   49.3134 H   0  0  0  0  0  0  0  0  0  0  0  0
  174.1399   24.0612   48.3644 H   0  0  0  0  0  0  0  0  0  0  0  0
  172.2315   24.9155   49.7291 H   0  0  0  0  0  0  0  0  0  0  0  0
  172.3131   24.7738   52.2197 H   0  0  0  0  0  0  0  0  0  0  0  0
  173.5640   24.2300   54.0870 H   0  0  0  0  0  0  0  0  0  0  0  0
  179.5040   22.2240   51.8770 H   0  0  0  0  0  0  0  0  0  0  0  0
  177.2218   20.3413   48.1919 H   0  0  0  0  0  0  0  0  0  0  0  0
  178.5137   18.3922   46.9129 H   0  0  0  0  0  0  0  0  0  0  0  0
  177.8818   19.4686   45.6211 H   0  0  0  0  0  0  0  0  0  0  0  0
  179.6119   18.9854   45.6211 H   0  0  0  0  0  0  0  0  0  0  0  0
  1  2  1  0
  2  3  2  0
  3  4  1  0
  4  5  2  0
  5  6  1  0
  6  7  1  0
  7  8  1  0
  8  9  2  0
  9 10  1  0
 10 11  2  0
 11 12  1  0
 12 13  1  0
 12 14  2  0
 14 15  1  0
 15 16  2  0
 15 17  1  0
 17 18  1  0
  5 19  1  0
 19 20  2  0
 20 21  1  0
 20  2  1  0
 17  6  2  0
 14  8  1  0
  1 22  1  0
  1 23  1  0
  1 24  1  0
  3 25  1  0
  4 26  1  0
  9 27  1  0
 10 28  1  0
 11 29  1  0
 13 30  1  0
 18 31  1  0
 19 32  1  0
 21 33  1  0
 21 34  1  0
 21 35  1  0
M  END
>  <meeko>  (6) 
{"is_sidechain": [false], "free_energy": -7.204, "intermolecular_energy": -7.879, "internal_energy": -0.273}

$$$$
cand_036_out
     RDKit          3D

 35 37  0  0  0  0  0  0  0  0999 V2000
  170.0260   25.2220   51.9960 C   0  0  0  0  0  0  0  0  0  0  0  0
  171.2270   24.6490   51.2940 C   0  0  0  0  0  0  0  0  0  0  0  0
  171.3480   24.8000   49.9060 C   0  0  0  0  0  0  0  0  0  0  0  0
  172.4490   24.2800   49.2220 C   0  0  0  0  0  0  0  0  0  0  0  0
  173.4550   23.5890   49.9050 C   0  0  0  0  0  0  0  0  0  0  0  0
  174.6430   23.0530   49.2080 C   0  0  0  0  0  0  0  0  0  0  0  0
  174.4300   21.7870   48.6750 O   0  0  0  0  0  0  0  0  0  0  0  0
  175.4530   21.1700   48.0000 C   0  0  0  0  0  0  0  0  0  0  0  0
  175.2000   19.8930   47.4950 C   0  0  0  0  0  0  0  0  0  0  0  0
  176.1980   19.2110   46.7960 C   0  0  0  0  0  0  0  0  0  0  0  0
  177.4470   19.8040   46.6020 C   0  0  0  0  0  0  0  0  0  0  0  0
  177.6960   21.0780   47.1070 C   0  0  0  0  0  0  0  0  0  0  0  0
  178.9410   21.6000   46.8810 O   0  0  0  0  0  0  0  0  0  0  0  0
  176.6980   21.7610   47.8070 C   0  0  0  0  0  0  0  0  0  0  0  0
  176.9180   23.1000   48.3540 C   0  0  0  0  0  0  0  0  0  0  0  0
  177.9880   23.6900   48.2190 O   0  0  0  0  0  0  0  0  0  0  0  0
  175.7970   23.7340   49.0870 C   0  0  0  0  0  0  0  0  0  0  0  0
  176.0130   25.0040   49.5880 O   0  0  0  0  0  0  0  0  0  0  0  0
  173.3360   23.4480   51.2970 C   0  0  0  0  0  0  0  0  0  0  0  0
  172.2360   23.9670   52.0010 C   0  0  0  0  0  0  0  0  0  0  0  0
  172.1590   23.7770   53.4910 C   0  0  0  0  0  0  0  0  0  0  0  0
  170.1700   25.1533   53.0844 H   0  0  0  0  0  0  0  0  0  0  0  0
  169.9017   26.2764   51.7084 H   0  0  0  0  0  0  0  0  0  0  0  0
  169.1282   24.6552   51.7084 H   0  0  0  0  0  0  0  0  0  0  0  0
  170.5655   25.3351   49.3480 H   0  0  0  0  0  0  0  0  0  0  0  0
  172.5259   24.4155   48.1331 H   0  0  0  0  0  0  0  0  0  0  0  0
  174.2162   19.4251   47.6476 H   0  0  0  0  0  0  0  0  0  0  0  0
  175.9999   18.2050   46.3976 H   0  0  0  0  0  0  0  0  0  0  0  0
  178.2329   19.2661   46.0514 H   0  0  0  0  0  0  0  0  0  0  0  0
  179.3560   21.4780   46.0490 H   0  0  0  0  0  0  0  0  0  0  0  0
  175.2880   25.5200   49.8820 H   0  0  0  0  0  0  0  0  0  0  0  0
  174.1244   22.9174   51.8509 H   0  0  0  0  0  0  0  0  0  0  0  0
  172.5261   24.6829   53.9956 H   0  0  0  0  0  0  0  0  0  0  0  0
  171.1149   23.5919   53.7836 H   0  0  0  0  0  0  0  0  0  0  0  0
  172.7797   22.9173   53.7836 H   0  0  0  0  0  0  0  0  0  0  0  0
  1  2  1  0
  2  3  2  0
  3  4  1  0
  4  5  2  0
  5  6  1  0
  6  7  1  0
  7  8  1  0
  8  9  2  0
  9 10  1  0
 10 11  2  0
 11 12  1  0
 12 13  1  0
 12 14  2  0
 14 15  1  0
 15 16  2  0
 15 17  1  0
 17 18  1  0
  5 19  1  0
 19 20  2  0
 20 21  1  0
 20  2  1  0
 17  6  2  0
 14  8  1  0
  1 22  1  0
  1 23  1  0
  1 24  1  0
  3 25  1  0
  4 26  1  0
  9 27  1  0
 10 28  1  0
 11 29  1  0
 13 30  1  0
 18 31  1  0
 19 32  1  0
 21 33  1  0
 21 34  1  0
 21 35  1  0
M  END
>  <meeko>  (7) 
{"is_sidechain": [false], "free_energy": -7.179, "intermolecular_energy": -7.807, "internal_energy": -0.318}

$$$$
cand_036_out
     RDKit          3D

 35 37  0  0  0  0  0  0  0  0999 V2000
  177.8730   20.8860   46.5870 C   0  0  0  0  0  0  0  0  0  0  0  0
  176.9730   21.4360   47.6590 C   0  0  0  0  0  0  0  0  0  0  0  0
  176.0700   20.5800   48.3040 C   0  0  0  0  0  0  0  0  0  0  0  0
  175.2190   21.0570   49.3040 C   0  0  0  0  0  0  0  0  0  0  0  0
  175.2430   22.4040   49.6820 C   0  0  0  0  0  0  0  0  0  0  0  0
  174.3720   22.9270   50.7550 C   0  0  0  0  0  0  0  0  0  0  0  0
  175.0840   23.3230   51.8820 O   0  0  0  0  0  0  0  0  0  0  0  0
  174.3980   23.8300   52.9560 C   0  0  0  0  0  0  0  0  0  0  0  0
  175.1500   24.2010   54.0710 C   0  0  0  0  0  0  0  0  0  0  0  0
  174.5130   24.7260   55.1980 C   0  0  0  0  0  0  0  0  0  0  0  0
  173.1260   24.8800   55.2090 C   0  0  0  0  0  0  0  0  0  0  0  0
  172.3770   24.5090   54.0950 C   0  0  0  0  0  0  0  0  0  0  0  0
  171.0230   24.6870   54.1730 O   0  0  0  0  0  0  0  0  0  0  0  0
  173.0150   23.9830   52.9680 C   0  0  0  0  0  0  0  0  0  0  0  0
  172.2660   23.5810   51.7760 C   0  0  0  0  0  0  0  0  0  0  0  0
  171.0430   23.6920   51.7080 O   0  0  0  0  0  0  0  0  0  0  0  0
  173.0350   23.0270   50.6380 C   0  0  0  0  0  0  0  0  0  0  0  0
  172.3190   22.6630   49.5140 O   0  0  0  0  0  0  0  0  0  0  0  0
  176.1550   23.2570   49.0410 C   0  0  0  0  0  0  0  0  0  0  0  0
  177.0200   22.7920   48.0340 C   0  0  0  0  0  0  0  0  0  0  0  0
  177.9700   23.7560   47.3770 C   0  0  0  0  0  0  0  0  0  0  0  0
  178.7232   20.3664   47.0530 H   0  0  0  0  0  0  0  0  0  0  0  0
  177.3087   20.1783   45.9620 H   0  0  0  0  0  0  0  0  0  0  0  0
  178.2454   21.7110   45.9620 H   0  0  0  0  0  0  0  0  0  0  0  0
  176.0308   19.5183   48.0190 H   0  0  0  0  0  0  0  0  0  0  0  0
  174.5219   20.3656   49.8000 H   0  0  0  0  0  0  0  0  0  0  0  0
  176.2433   24.0803   54.0627 H   0  0  0  0  0  0  0  0  0  0  0  0
  175.1053   25.0183   56.0776 H   0  0  0  0  0  0  0  0  0  0  0  0
  172.6249   25.2939   56.0965 H   0  0  0  0  0  0  0  0  0  0  0  0
  170.5850   24.5960   54.9970 H   0  0  0  0  0  0  0  0  0  0  0  0
  171.6180   23.2060   49.2090 H   0  0  0  0  0  0  0  0  0  0  0  0
  176.1943   24.3166   49.3338 H   0  0  0  0  0  0  0  0  0  0  0  0
  178.5194   24.3135   48.1499 H   0  0  0  0  0  0  0  0  0  0  0  0
  178.6823   23.1992   46.7504 H   0  0  0  0  0  0  0  0  0  0  0  0
  177.4029   24.4601   46.7504 H   0  0  0  0  0  0  0  0  0  0  0  0
  1  2  1  0
  2  3  2  0
  3  4  1  0
  4  5  2  0
  5  6  1  0
  6  7  1  0
  7  8  1  0
  8  9  2  0
  9 10  1  0
 10 11  2  0
 11 12  1  0
 12 13  1  0
 12 14  2  0
 14 15  1  0
 15 16  2  0
 15 17  1  0
 17 18  1  0
  5 19  1  0
 19 20  2  0
 20 21  1  0
 20  2  1  0
 17  6  2  0
 14  8  1  0
  1 22  1  0
  1 23  1  0
  1 24  1  0
  3 25  1  0
  4 26  1  0
  9 27  1  0
 10 28  1  0
 11 29  1  0
 13 30  1  0
 18 31  1  0
 19 32  1  0
 21 33  1  0
 21 34  1  0
 21 35  1  0
M  END
>  <meeko>  (8) 
{"is_sidechain": [false], "free_energy": -7.146, "intermolecular_energy": -7.838, "internal_energy": -0.25}

$$$$
cand_036_out
     RDKit          3D

 35 37  0  0  0  0  0  0  0  0999 V2000
  175.2730   27.4660   52.2030 C   0  0  0  0  0  0  0  0  0  0  0  0
  175.4660   26.2150   51.3900 C   0  0  0  0  0  0  0  0  0  0  0  0
  174.5560   25.9100   50.3690 C   0  0  0  0  0  0  0  0  0  0  0  0
  174.7050   24.7570   49.5950 C   0  0  0  0  0  0  0  0  0  0  0  0
  175.7640   23.8730   49.8250 C   0  0  0  0  0  0  0  0  0  0  0  0
  175.9590   22.6600   49.0030 C   0  0  0  0  0  0  0  0  0  0  0  0
  177.2660   22.5200   48.5510 O   0  0  0  0  0  0  0  0  0  0  0  0
  177.5870   21.4360   47.7750 C   0  0  0  0  0  0  0  0  0  0  0  0
  178.9070   21.3420   47.3300 C   0  0  0  0  0  0  0  0  0  0  0  0
  179.3000   20.2620   46.5380 C   0  0  0  0  0  0  0  0  0  0  0  0
  178.3750   19.2750   46.1910 C   0  0  0  0  0  0  0  0  0  0  0  0
  177.0590   19.3700   46.6360 C   0  0  0  0  0  0  0  0  0  0  0  0
  176.2050   18.3700   46.2590 O   0  0  0  0  0  0  0  0  0  0  0  0
  176.6660   20.4520   47.4280 C   0  0  0  0  0  0  0  0  0  0  0  0
  175.2930   20.5910   47.9160 C   0  0  0  0  0  0  0  0  0  0  0  0
  174.4240   19.7610   47.6590 O   0  0  0  0  0  0  0  0  0  0  0  0
  174.9760   21.7790   48.7420 C   0  0  0  0  0  0  0  0  0  0  0  0
  173.6800   21.8930   49.2090 O   0  0  0  0  0  0  0  0  0  0  0  0
  176.6810   24.1850   50.8420 C   0  0  0  0  0  0  0  0  0  0  0  0
  176.5460   25.3430   51.6280 C   0  0  0  0  0  0  0  0  0  0  0  0
  177.5550   25.6200   52.7090 C   0  0  0  0  0  0  0  0  0  0  0  0
  175.3114   27.2170   53.2738 H   0  0  0  0  0  0  0  0  0  0  0  0
  176.0709   28.1848   51.9648 H   0  0  0  0  0  0  0  0  0  0  0  0
  174.2956   27.9109   51.9648 H   0  0  0  0  0  0  0  0  0  0  0  0
  173.7122   26.5884   50.1743 H   0  0  0  0  0  0  0  0  0  0  0  0
  173.9810   24.5417   48.7953 H   0  0  0  0  0  0  0  0  0  0  0  0
  179.6367   22.1184   47.6034 H   0  0  0  0  0  0  0  0  0  0  0  0
  180.3398   20.1882   46.1867 H   0  0  0  0  0  0  0  0  0  0  0  0
  178.6855   18.4239   45.5671 H   0  0  0  0  0  0  0  0  0  0  0  0
  176.2020   17.5570   46.7250 H   0  0  0  0  0  0  0  0  0  0  0  0
  173.2880   22.7390   49.3030 H   0  0  0  0  0  0  0  0  0  0  0  0
  177.5263   23.5062   51.0284 H   0  0  0  0  0  0  0  0  0  0  0  0
  177.0823   25.4902   53.6937 H   0  0  0  0  0  0  0  0  0  0  0  0
  178.3980   24.9201   52.6118 H   0  0  0  0  0  0  0  0  0  0  0  0
  177.9224   26.6523   52.6118 H   0  0  0  0  0  0  0  0  0  0  0  0
  1  2  1  0
  2  3  2  0
  3  4  1  0
  4  5  2  0
  5  6  1  0
  6  7  1  0
  7  8  1  0
  8  9  2  0
  9 10  1  0
 10 11  2  0
 11 12  1  0
 12 13  1  0
 12 14  2  0
 14 15  1  0
 15 16  2  0
 15 17  1  0
 17 18  1  0
  5 19  1  0
 19 20  2  0
 20 21  1  0
 20  2  1  0
 17  6  2  0
 14  8  1  0
  1 22  1  0
  1 23  1  0
  1 24  1  0
  3 25  1  0
  4 26  1  0
  9 27  1  0
 10 28  1  0
 11 29  1  0
 13 30  1  0
 18 31  1  0
 19 32  1  0
 21 33  1  0
 21 34  1  0
 21 35  1  0
M  END
>  <meeko>  (9) 
{"is_sidechain": [false], "free_energy": -6.973, "intermolecular_energy": -7.827, "internal_energy": -0.067}

$$$$
