cand_016_out
     RDKit          3D

 35 37  0  0  0  0  0  0  0  0999 V2000
  179.7820   14.0350   44.9380 C   0  0  0  0  0  0  0  0  0  0  0  0
  180.2040   15.4540   44.6680 C   0  0  0  0  0  0  0  0  0  0  0  0
  179.6900   16.4820   45.4790 C   0  0  0  0  0  0  0  0  0  0  0  0
  180.0520   17.8230   45.2850 C   0  0  0  0  0  0  0  0  0  0  0  0
  179.5290   18.9030   46.1480 C   0  0  0  0  0  0  0  0  0  0  0  0
  178.1400   18.9470   46.1780 O   0  0  0  0  0  0  0  0  0  0  0  0
  177.5230   19.9030   46.9420 C   0  0  0  0  0  0  0  0  0  0  0  0
  176.1280   19.9210   46.9310 C   0  0  0  0  0  0  0  0  0  0  0  0
  175.4360   20.8690   47.6880 C   0  0  0  0  0  0  0  0  0  0  0  0
  176.1400   21.7980   48.4570 C   0  0  0  0  0  0  0  0  0  0  0  0
  177.5320   21.7790   48.4670 C   0  0  0  0  0  0  0  0  0  0  0  0
  178.1570   22.7160   49.2430 O   0  0  0  0  0  0  0  0  0  0  0  0
  178.2230   20.8300   47.7080 C   0  0  0  0  0  0  0  0  0  0  0  0
  179.6860   20.7750   47.6910 C   0  0  0  0  0  0  0  0  0  0  0  0
  180.3750   21.5530   48.3470 O   0  0  0  0  0  0  0  0  0  0  0  0
  180.3220   19.7370   46.8470 C   0  0  0  0  0  0  0  0  0  0  0  0
  181.7030   19.6840   46.8470 O   0  0  0  0  0  0  0  0  0  0  0  0
  180.9660   18.1240   44.2700 C   0  0  0  0  0  0  0  0  0  0  0  0
  181.4940   17.1140   43.4610 C   0  0  0  0  0  0  0  0  0  0  0  0
  181.1290   15.7710   43.6510 C   0  0  0  0  0  0  0  0  0  0  0  0
  181.7110   14.7100   42.7450 C   0  0  0  0  0  0  0  0  0  0  0  0
  181.0740   14.6140   41.5420 F   0  0  0  0  0  0  0  0  0  0  0  0
  183.0220   14.9240   42.4440 F   0  0  0  0  0  0  0  0  0  0  0  0
  179.7322   13.8676   46.0240 H   0  0  0  0  0  0  0  0  0  0  0  0
  178.7918   13.8561   44.4937 H   0  0  0  0  0  0  0  0  0  0  0  0
  180.5135   13.3441   44.4937 H   0  0  0  0  0  0  0  0  0  0  0  0
  178.9865   16.2278   46.2855 H   0  0  0  0  0  0  0  0  0  0  0  0
  175.5732   19.1886   46.3262 H   0  0  0  0  0  0  0  0  0  0  0  0
  174.3361   20.8839   47.6785 H   0  0  0  0  0  0  0  0  0  0  0  0
  175.5953   22.5440   49.0542 H   0  0  0  0  0  0  0  0  0  0  0  0
  178.9280   23.1470   48.9280 H   0  0  0  0  0  0  0  0  0  0  0  0
  182.1420   18.8920   46.6050 H   0  0  0  0  0  0  0  0  0  0  0  0
  181.2728   19.1676   44.1066 H   0  0  0  0  0  0  0  0  0  0  0  0
  182.2058   17.3746   42.6639 H   0  0  0  0  0  0  0  0  0  0  0  0
  181.5817   13.7891   43.3326 H   0  0  0  0  0  0  0  0  0  0  0  0
  1  2  1  0
  2  3  2  0
  3  4  1  0
  4  5  1  0
  5  6  1  0
  6  7  1  0
  7  8  2  0
  8  9  1  0
  9 10  2  0
 10 11  1  0
 11 12  1  0
 11 13  2  0
 13 14  1  0
 14 15  2  0
 14 16  1  0
 16 17  1  0
  4 18  2  0
 18 19  1  0
 19 20  2  0
 20 21  1  0
 21 22  1  0
 21 23  1  0
 20  2  1  0
 16  5  2  0
 13  7  1  0
  1 24  1  0
  1 25  1  0
  1 26  1  0
  3 27  1  0
  8 28  1  0
  9 29  1  0
 10 30  1  0
 12 31  1  0
 17 32  1  0
 18 33  1  0
 19 34  1  0
 21 35  1  0
M  END
>  <meeko>  (1) 
{"is_sidechain": [false], "free_energy": -8.107, "intermolecular_energy": -9.529, "internal_energy": -0.296}

$$$$
cand_016_out
     RDKit          3D

 35 37  0  0  0  0  0  0  0  0999 V2000
  179.7510   13.9930   44.8150 C   0  0  0  0  0  0  0  0  0  0  0  0
  180.2290   15.3780   44.4700 C   0  0  0  0  0  0  0  0  0  0  0  0
  179.9820   16.4270   45.3750 C   0  0  0  0  0  0  0  0  0  0  0  0
  180.4100   17.7370   45.1160 C   0  0  0  0  0  0  0  0  0  0  0  0
  180.1700   18.8370   46.0740 C   0  0  0  0  0  0  0  0  0  0  0  0
  181.3460   19.4000   46.5560 O   0  0  0  0  0  0  0  0  0  0  0  0
  181.2670   20.4330   47.4540 C   0  0  0  0  0  0  0  0  0  0  0  0
  182.4710   20.9580   47.9240 C   0  0  0  0  0  0  0  0  0  0  0  0
  182.4620   22.0130   48.8400 C   0  0  0  0  0  0  0  0  0  0  0  0
  181.2490   22.5410   49.2860 C   0  0  0  0  0  0  0  0  0  0  0  0
  180.0480   22.0160   48.8150 C   0  0  0  0  0  0  0  0  0  0  0  0
  178.8980   22.5810   49.2920 O   0  0  0  0  0  0  0  0  0  0  0  0
  180.0580   20.9600   47.8990 C   0  0  0  0  0  0  0  0  0  0  0  0
  178.8190   20.3790   47.3800 C   0  0  0  0  0  0  0  0  0  0  0  0
  177.7130   20.7940   47.7180 O   0  0  0  0  0  0  0  0  0  0  0  0
  178.9390   19.2580   46.4190 C   0  0  0  0  0  0  0  0  0  0  0  0
  177.7640   18.7250   45.9250 O   0  0  0  0  0  0  0  0  0  0  0  0
  181.1170   17.9840   43.9350 C   0  0  0  0  0  0  0  0  0  0  0  0
  181.3790   16.9520   43.0300 C   0  0  0  0  0  0  0  0  0  0  0  0
  180.9480   15.6400   43.2850 C   0  0  0  0  0  0  0  0  0  0  0  0
  181.2380   14.5550   42.2730 C   0  0  0  0  0  0  0  0  0  0  0  0
  180.6110   14.7480   41.0760 F   0  0  0  0  0  0  0  0  0  0  0  0
  182.5620   14.4420   41.9740 F   0  0  0  0  0  0  0  0  0  0  0  0
  179.7121   13.8803   45.9085 H   0  0  0  0  0  0  0  0  0  0  0  0
  178.7468   13.8363   44.3943 H   0  0  0  0  0  0  0  0  0  0  0  0
  180.4448   13.2503   44.3943 H   0  0  0  0  0  0  0  0  0  0  0  0
  179.4400   16.2142   46.3082 H   0  0  0  0  0  0  0  0  0  0  0  0
  183.4269   20.5416   47.5736 H   0  0  0  0  0  0  0  0  0  0  0  0
  183.4112   22.4278   49.2100 H   0  0  0  0  0  0  0  0  0  0  0  0
  181.2418   23.3705   50.0084 H   0  0  0  0  0  0  0  0  0  0  0  0
  178.9410   23.3230   49.8630 H   0  0  0  0  0  0  0  0  0  0  0  0
  177.6070   18.7130   45.0010 H   0  0  0  0  0  0  0  0  0  0  0  0
  181.4709   19.0022   43.7160 H   0  0  0  0  0  0  0  0  0  0  0  0
  181.9311   17.1706   42.1040 H   0  0  0  0  0  0  0  0  0  0  0  0
  180.8634   13.6489   42.7716 H   0  0  0  0  0  0  0  0  0  0  0  0
  1  2  1  0
  2  3  2  0
  3  4  1  0
  4  5  1  0
  5  6  1  0
  6  7  1  0
  7  8  2  0
  8  9  1  0
  9 10  2  0
 10 11  1  0
 11 12  1  0
 11 13  2  0
 13 14  1  0
 14 15  2  0
 14 16  1  0
 16 17  1  0
  4 18  2  0
 18 19  1  0
 19 20  2  0
 20 21  1  0
 21 22  1  0
 21 23  1  0
 20  2  1  0
 16  5  2  0
 13  7  1  0
  1 24  1  0
  1 25  1  0
  1 26  1  0
  3 27  1  0
  8 28  1  0
  9 29  1  0
 10 30  1  0
 12 31  1  0
 17 32  1  0
 18 33  1  0
 19 34  1  0
 21 35  1  0
M  END
>  <meeko>  (2) 
{"is_sidechain": [false], "free_energy": -7.726, "intermolecular_energy": -8.979, "internal_energy": -0.398}

$$$$
cand_016_out
     RDKit          3D

 35 37  0  0  0  0  0  0  0  0999 V2000
  174.2480   26.5130   50.1920 C   0  0  0  0  0  0  0  0  0  0  0  0
  174.5280   25.0620   49.9030 C   0  0  0  0  0  0  0  0  0  0  0  0
  175.8540   24.5980   49.9710 C   0  0  0  0  0  0  0  0  0  0  0  0
  176.1780   23.2570   49.7220 C   0  0  0  0  0  0  0  0  0  0  0  0
  177.5680   22.7630   49.8130 C   0  0  0  0  0  0  0  0  0  0  0  0
  177.9710   22.0670   48.6790 O   0  0  0  0  0  0  0  0  0  0  0  0
  179.2410   21.5540   48.6320 C   0  0  0  0  0  0  0  0  0  0  0  0
  179.5980   20.8490   47.4810 C   0  0  0  0  0  0  0  0  0  0  0  0
  180.8770   20.3010   47.3680 C   0  0  0  0  0  0  0  0  0  0  0  0
  181.7990   20.4580   48.4040 C   0  0  0  0  0  0  0  0  0  0  0  0
  181.4420   21.1620   49.5510 C   0  0  0  0  0  0  0  0  0  0  0  0
  182.3940   21.2780   50.5260 O   0  0  0  0  0  0  0  0  0  0  0  0
  180.1610   21.7090   49.6640 C   0  0  0  0  0  0  0  0  0  0  0  0
  179.7440   22.4560   50.8520 C   0  0  0  0  0  0  0  0  0  0  0  0
  180.5010   22.6430   51.8030 O   0  0  0  0  0  0  0  0  0  0  0  0
  178.3620   22.9880   50.8770 C   0  0  0  0  0  0  0  0  0  0  0  0
  177.9830   23.7030   51.9970 O   0  0  0  0  0  0  0  0  0  0  0  0
  175.1410   22.3680   49.4210 C   0  0  0  0  0  0  0  0  0  0  0  0
  173.8170   22.8100   49.3590 C   0  0  0  0  0  0  0  0  0  0  0  0
  173.4910   24.1540   49.6040 C   0  0  0  0  0  0  0  0  0  0  0  0
  172.0480   24.5940   49.5110 C   0  0  0  0  0  0  0  0  0  0  0  0
  171.3440   23.9440   48.5390 F   0  0  0  0  0  0  0  0  0  0  0  0
  171.3500   24.3880   50.6620 F   0  0  0  0  0  0  0  0  0  0  0  0
  174.2175   26.6709   51.2802 H   0  0  0  0  0  0  0  0  0  0  0  0
  175.0428   27.1342   49.7535 H   0  0  0  0  0  0  0  0  0  0  0  0
  173.2791   26.7939   49.7535 H   0  0  0  0  0  0  0  0  0  0  0  0
  176.6571   25.3052   50.2260 H   0  0  0  0  0  0  0  0  0  0  0  0
  178.8721   20.7254   46.6638 H   0  0  0  0  0  0  0  0  0  0  0  0
  181.1584   19.7449   46.4616 H   0  0  0  0  0  0  0  0  0  0  0  0
  182.8066   20.0260   48.3144 H   0  0  0  0  0  0  0  0  0  0  0  0
  183.2020   21.7170   50.3430 H   0  0  0  0  0  0  0  0  0  0  0  0
  177.1040   23.6410   52.3180 H   0  0  0  0  0  0  0  0  0  0  0  0
  175.3704   21.3091   49.2310 H   0  0  0  0  0  0  0  0  0  0  0  0
  173.0179   22.0946   49.1146 H   0  0  0  0  0  0  0  0  0  0  0  0
  172.1340   25.6668   49.2837 H   0  0  0  0  0  0  0  0  0  0  0  0
  1  2  1  0
  2  3  2  0
  3  4  1  0
  4  5  1  0
  5  6  1  0
  6  7  1  0
  7  8  2  0
  8  9  1  0
  9 10  2  0
 10 11  1  0
 11 12  1  0
 11 13  2  0
 13 14  1  0
 14 15  2  0
 14 16  1  0
 16 17  1  0
  4 18  2  0
 18 19  1  0
 19 20  2  0
 20 21  1  0
 21 22  1  0
 21 23  1  0
 20  2  1  0
 16  5  2  0
 13  7  1  0
  1 24  1  0
  1 25  1  0
  1 26  1  0
  3 27  1  0
  8 28  1  0
  9 29  1  0
 10 30  1  0
 12 31  1  0
 17 32  1  0
 18 33  1  0
 19 34  1  0
 21 35  1  0
M  END
>  <meeko>  (3) 
{"is_sidechain": [false], "free_energy": -7.631, "intermolecular_energy": -8.997, "internal_energy": -0.269}

$$$$
cand_016_out
     RDKit          3D

 35 37  0  0  0  0  0  0  0  0999 V2000
  177.9840   23.7170   47.3290 C   0  0  0  0  0  0  0  0  0  0  0  0
  177.0520   22.7640   48.0270 C   0  0  0  0  0  0  0  0  0  0  0  0
  176.2110   23.2570   49.0420 C   0  0  0  0  0  0  0  0  0  0  0  0
  175.3140   22.4220   49.7230 C   0  0  0  0  0  0  0  0  0  0  0  0
  174.4150   22.9410   50.7760 C   0  0  0  0  0  0  0  0  0  0  0  0
  175.0980   23.3550   51.9140 O   0  0  0  0  0  0  0  0  0  0  0  0
  174.3820   23.8590   52.9690 C   0  0  0  0  0  0  0  0  0  0  0  0
  175.1060   24.2480   54.0980 C   0  0  0  0  0  0  0  0  0  0  0  0
  174.4380   24.7710   55.2080 C   0  0  0  0  0  0  0  0  0  0  0  0
  173.0490   24.9050   55.1890 C   0  0  0  0  0  0  0  0  0  0  0  0
  172.3290   24.5170   54.0630 C   0  0  0  0  0  0  0  0  0  0  0  0
  170.9720   24.6760   54.1120 O   0  0  0  0  0  0  0  0  0  0  0  0
  172.9970   23.9930   52.9520 C   0  0  0  0  0  0  0  0  0  0  0  0
  172.2780   23.5720   51.7490 C   0  0  0  0  0  0  0  0  0  0  0  0
  171.0560   23.6660   51.6530 O   0  0  0  0  0  0  0  0  0  0  0  0
  173.0790   23.0220   50.6300 C   0  0  0  0  0  0  0  0  0  0  0  0
  172.3930   22.6410   49.4930 O   0  0  0  0  0  0  0  0  0  0  0  0
  175.2510   21.0740   49.3560 C   0  0  0  0  0  0  0  0  0  0  0  0
  176.0710   20.5700   48.3440 C   0  0  0  0  0  0  0  0  0  0  0  0
  176.9740   21.4040   47.6630 C   0  0  0  0  0  0  0  0  0  0  0  0
  177.8550   20.8160   46.5840 C   0  0  0  0  0  0  0  0  0  0  0  0
  178.5800   19.7380   47.0040 F   0  0  0  0  0  0  0  0  0  0  0  0
  177.1560   20.3820   45.5000 F   0  0  0  0  0  0  0  0  0  0  0  0
  178.5475   24.2932   48.0777 H   0  0  0  0  0  0  0  0  0  0  0  0
  178.6850   23.1493   46.6995 H   0  0  0  0  0  0  0  0  0  0  0  0
  177.4008   24.4052   46.6995 H   0  0  0  0  0  0  0  0  0  0  0  0
  176.2586   24.3234   49.3075 H   0  0  0  0  0  0  0  0  0  0  0  0
  176.2008   24.1428   54.1133 H   0  0  0  0  0  0  0  0  0  0  0  0
  175.0074   25.0775   56.0978 H   0  0  0  0  0  0  0  0  0  0  0  0
  172.5237   25.3170   56.0633 H   0  0  0  0  0  0  0  0  0  0  0  0
  170.6040   25.4630   54.4650 H   0  0  0  0  0  0  0  0  0  0  0  0
  172.6710   21.8880   49.0080 H   0  0  0  0  0  0  0  0  0  0  0  0
  174.5474   20.4029   49.8704 H   0  0  0  0  0  0  0  0  0  0  0  0
  176.0091   19.5049   48.0762 H   0  0  0  0  0  0  0  0  0  0  0  0
  178.5149   21.6560   46.3217 H   0  0  0  0  0  0  0  0  0  0  0  0
  1  2  1  0
  2  3  2  0
  3  4  1  0
  4  5  1  0
  5  6  1  0
  6  7  1  0
  7  8  2  0
  8  9  1  0
  9 10  2  0
 10 11  1  0
 11 12  1  0
 11 13  2  0
 13 14  1  0
 14 15  2  0
 14 16  1  0
 16 17  1  0
  4 18  2  0
 18 19  1  0
 19 20  2  0
 20 21  1  0
 21 22  1  0
 21 23  1  0
 20  2  1  0
 16  5  2  0
 13  7  1  0
  1 24  1  0
  1 25  1  0
  1 26  1  0
  3 27  1  0
  8 28  1  0
  9 29  1  0
 10 30  1  0
 12 31  1  0
 17 32  1  0
 18 33  1  0
 19 34  1  0
 21 35  1  0
M  END
>  <meeko>  (4) 
{"is_sidechain": [false], "free_energy": -7.437, "intermolecular_energy": -8.627, "internal_energy": -0.41}

$$$$
cand_016_out
     RDKit          3D

 35 37  0  0  0  0  0  0  0  0999 V2000
  181.5040   21.8590   47.3590 C   0  0  0  0  0  0  0  0  0  0  0  0
  180.0910   21.3730   47.5380 C   0  0  0  0  0  0  0  0  0  0  0  0
  179.2910   21.9590   48.5360 C   0  0  0  0  0  0  0  0  0  0  0  0
  177.9650   21.5570   48.7470 C   0  0  0  0  0  0  0  0  0  0  0  0
  177.1160   22.1850   49.7810 C   0  0  0  0  0  0  0  0  0  0  0  0
  176.0250   22.8620   49.2480 O   0  0  0  0  0  0  0  0  0  0  0  0
  175.1550   23.4910   50.1000 C   0  0  0  0  0  0  0  0  0  0  0  0
  174.0830   24.1720   49.5210 C   0  0  0  0  0  0  0  0  0  0  0  0
  173.1580   24.8340   50.3320 C   0  0  0  0  0  0  0  0  0  0  0  0
  173.3050   24.8150   51.7200 C   0  0  0  0  0  0  0  0  0  0  0  0
  174.3760   24.1350   52.2960 C   0  0  0  0  0  0  0  0  0  0  0  0
  174.4590   24.1570   53.6600 O   0  0  0  0  0  0  0  0  0  0  0  0
  175.3010   23.4740   51.4830 C   0  0  0  0  0  0  0  0  0  0  0  0
  176.4400   22.7480   52.0470 C   0  0  0  0  0  0  0  0  0  0  0  0
  176.6340   22.6790   53.2600 O   0  0  0  0  0  0  0  0  0  0  0  0
  177.3680   22.0870   51.1000 C   0  0  0  0  0  0  0  0  0  0  0  0
  178.4330   21.3930   51.6430 O   0  0  0  0  0  0  0  0  0  0  0  0
  177.4330   20.5620   47.9200 C   0  0  0  0  0  0  0  0  0  0  0  0
  178.2100   19.9760   46.9170 C   0  0  0  0  0  0  0  0  0  0  0  0
  179.5400   20.3740   46.7080 C   0  0  0  0  0  0  0  0  0  0  0  0
  180.3510   19.7040   45.6230 C   0  0  0  0  0  0  0  0  0  0  0  0
  180.1420   18.3580   45.5410 F   0  0  0  0  0  0  0  0  0  0  0  0
  180.0840   20.1880   44.3780 F   0  0  0  0  0  0  0  0  0  0  0  0
  181.9649   22.0175   48.3451 H   0  0  0  0  0  0  0  0  0  0  0  0
  182.0821   21.1080   46.8005 H   0  0  0  0  0  0  0  0  0  0  0  0
  181.4978   22.8067   46.8005 H   0  0  0  0  0  0  0  0  0  0  0  0
  179.7171   22.7530   49.1668 H   0  0  0  0  0  0  0  0  0  0  0  0
  173.9666   24.1874   48.4273 H   0  0  0  0  0  0  0  0  0  0  0  0
  172.3129   25.3708   49.8763 H   0  0  0  0  0  0  0  0  0  0  0  0
  172.5762   25.3362   52.3582 H   0  0  0  0  0  0  0  0  0  0  0  0
  174.6430   24.9600   54.1070 H   0  0  0  0  0  0  0  0  0  0  0  0
  179.2510   21.3590   51.1870 H   0  0  0  0  0  0  0  0  0  0  0  0
  176.3915   20.2372   48.0607 H   0  0  0  0  0  0  0  0  0  0  0  0
  177.7730   19.1913   46.2819 H   0  0  0  0  0  0  0  0  0  0  0  0
  181.3865   19.9234   45.9224 H   0  0  0  0  0  0  0  0  0  0  0  0
  1  2  1  0
  2  3  2  0
  3  4  1  0
  4  5  1  0
  5  6  1  0
  6  7  1  0
  7  8  2  0
  8  9  1  0
  9 10  2  0
 10 11  1  0
 11 12  1  0
 11 13  2  0
 13 14  1  0
 14 15  2  0
 14 16  1  0
 16 17  1  0
  4 18  2  0
 18 19  1  0
 19 20  2  0
 20 21  1  0
 21 22  1  0
 21 23  1  0
 20  2  1  0
 16  5  2  0
 13  7  1  0
  1 24  1  0
  1 25  1  0
  1 26  1  0
  3 27  1  0
  8 28  1  0
  9 29  1  0
 10 30  1  0
 12 31  1  0
 17 32  1  0
 18 33  1  0
 19 34  1  0
 21 35  1  0
M  END
>  <meeko>  (5) 
{"is_sidechain": [false], "free_energy": -7.391, "intermolecular_energy": -8.565, "internal_energy": -0.418}

$$$$
cand_016_out
     RDKit          3D

 35 37  0  0  0  0  0  0  0  0999 V2000
  179.7040   18.5530   45.8040 C   0  0  0  0  0  0  0  0  0  0  0  0
  179.7140   19.8750   46.5220 C   0  0  0  0  0  0  0  0  0  0  0  0
  180.9320   20.3670   47.0260 C   0  0  0  0  0  0  0  0  0  0  0  0
  181.0080   21.5960   47.6960 C   0  0  0  0  0  0  0  0  0  0  0  0
  182.2900   22.1250   48.2090 C   0  0  0  0  0  0  0  0  0  0  0  0
  182.9620   22.9100   47.2790 O   0  0  0  0  0  0  0  0  0  0  0  0
  184.1670   23.4640   47.6270 C   0  0  0  0  0  0  0  0  0  0  0  0
  184.8150   24.2310   46.6580 C   0  0  0  0  0  0  0  0  0  0  0  0
  186.0460   24.8240   46.9470 C   0  0  0  0  0  0  0  0  0  0  0  0
  186.6280   24.6510   48.2040 C   0  0  0  0  0  0  0  0  0  0  0  0
  185.9800   23.8850   49.1690 C   0  0  0  0  0  0  0  0  0  0  0  0
  186.6050   23.7580   50.3780 O   0  0  0  0  0  0  0  0  0  0  0  0
  184.7480   23.2910   48.8790 C   0  0  0  0  0  0  0  0  0  0  0  0
  184.0350   22.4780   49.8650 C   0  0  0  0  0  0  0  0  0  0  0  0
  184.4780   22.2850   50.9950 O   0  0  0  0  0  0  0  0  0  0  0  0
  182.7400   21.8850   49.4550 C   0  0  0  0  0  0  0  0  0  0  0  0
  182.0670   21.1300   50.3970 O   0  0  0  0  0  0  0  0  0  0  0  0
  179.8380   22.3490   47.8380 C   0  0  0  0  0  0  0  0  0  0  0  0
  178.6220   21.8810   47.3360 C   0  0  0  0  0  0  0  0  0  0  0  0
  178.5430   20.6480   46.6680 C   0  0  0  0  0  0  0  0  0  0  0  0
  177.2040   20.1700   46.1520 C   0  0  0  0  0  0  0  0  0  0  0  0
  176.6740   19.1480   46.8850 F   0  0  0  0  0  0  0  0  0  0  0  0
  176.2530   21.1440   46.1490 F   0  0  0  0  0  0  0  0  0  0  0  0
  179.6978   17.7359   46.5404 H   0  0  0  0  0  0  0  0  0  0  0  0
  178.8053   18.4851   45.1733 H   0  0  0  0  0  0  0  0  0  0  0  0
  180.6015   18.4715   45.1733 H   0  0  0  0  0  0  0  0  0  0  0  0
  181.8475   19.7724   46.8909 H   0  0  0  0  0  0  0  0  0  0  0  0
  184.3567   24.3684   45.6675 H   0  0  0  0  0  0  0  0  0  0  0  0
  186.5576   25.4281   46.1832 H   0  0  0  0  0  0  0  0  0  0  0  0
  187.5970   25.1192   48.4316 H   0  0  0  0  0  0  0  0  0  0  0  0
  186.5230   24.4330   51.0230 H   0  0  0  0  0  0  0  0  0  0  0  0
  182.4700   20.9440   51.2230 H   0  0  0  0  0  0  0  0  0  0  0  0
  179.8762   23.3212   48.3511 H   0  0  0  0  0  0  0  0  0  0  0  0
  177.7129   22.4866   47.4655 H   0  0  0  0  0  0  0  0  0  0  0  0
  177.4394   19.8400   45.1294 H   0  0  0  0  0  0  0  0  0  0  0  0
  1  2  1  0
  2  3  2  0
  3  4  1  0
  4  5  1  0
  5  6  1  0
  6  7  1  0
  7  8  2  0
  8  9  1  0
  9 10  2  0
 10 11  1  0
 11 12  1  0
 11 13  2  0
 13 14  1  0
 14 15  2  0
 14 16  1  0
 16 17  1  0
  4 18  2  0
 18 19  1  0
 19 20  2  0
 20 21  1  0
 21 22  1  0
 21 23  1  0
 20  2  1  0
 16  5  2  0
 13  7  1  0
  1 24  1  0
  1 25  1  0
  1 26  1  0
  3 27  1  0
  8 28  1  0
  9 29  1  0
 10 30  1  0
 12 31  1  0
 17 32  1  0
 18 33  1  0
 19 34  1  0
 21 35  1  0
M  END
>  <meeko>  (6) 
{"is_sidechain": [false], "free_energy": -7.289, "intermolecular_energy": -8.347, "internal_energy": -0.516}

$$$$
cand_016_out
     RDKit          3D

 35 37  0  0  0  0  0  0  0  0999 V2000
  182.9120   25.4460   47.7170 C   0  0  0  0  0  0  0  0  0  0  0  0
  182.6260   24.0500   48.2030 C   0  0  0  0  0  0  0  0  0  0  0  0
  181.2940   23.6810   48.4640 C   0  0  0  0  0  0  0  0  0  0  0  0
  180.9610   22.3930   48.9090 C   0  0  0  0  0  0  0  0  0  0  0  0
  179.5610   21.9960   49.1650 C   0  0  0  0  0  0  0  0  0  0  0  0
  178.8530   21.7290   47.9990 O   0  0  0  0  0  0  0  0  0  0  0  0
  177.5390   21.3490   48.0940 C   0  0  0  0  0  0  0  0  0  0  0  0
  176.8620   21.1060   46.8980 C   0  0  0  0  0  0  0  0  0  0  0  0
  175.5210   20.7140   46.9230 C   0  0  0  0  0  0  0  0  0  0  0  0
  174.8590   20.5650   48.1430 C   0  0  0  0  0  0  0  0  0  0  0  0
  175.5360   20.8080   49.3350 C   0  0  0  0  0  0  0  0  0  0  0  0
  174.8280   20.6430   50.4930 O   0  0  0  0  0  0  0  0  0  0  0  0
  176.8780   21.2010   49.3090 C   0  0  0  0  0  0  0  0  0  0  0  0
  177.6260   21.4660   50.5380 C   0  0  0  0  0  0  0  0  0  0  0  0
  177.1150   21.3500   51.6510 O   0  0  0  0  0  0  0  0  0  0  0  0
  179.0400   21.8850   50.4020 C   0  0  0  0  0  0  0  0  0  0  0  0
  179.7430   22.1210   51.5690 O   0  0  0  0  0  0  0  0  0  0  0  0
  181.9900   21.4600   49.0700 C   0  0  0  0  0  0  0  0  0  0  0  0
  183.3170   21.8070   48.8060 C   0  0  0  0  0  0  0  0  0  0  0  0
  183.6530   23.0970   48.3640 C   0  0  0  0  0  0  0  0  0  0  0  0
  185.1030   23.4370   48.1040 C   0  0  0  0  0  0  0  0  0  0  0  0
  185.9770   22.6550   48.8030 F   0  0  0  0  0  0  0  0  0  0  0  0
  185.4590   23.2990   46.7970 F   0  0  0  0  0  0  0  0  0  0  0  0
  183.0488   26.1139   48.5802 H   0  0  0  0  0  0  0  0  0  0  0  0
  183.8279   25.4417   47.1079 H   0  0  0  0  0  0  0  0  0  0  0  0
  182.0682   25.8023   47.1079 H   0  0  0  0  0  0  0  0  0  0  0  0
  180.4936   24.4208   48.3155 H   0  0  0  0  0  0  0  0  0  0  0  0
  177.3836   21.2229   45.9366 H   0  0  0  0  0  0  0  0  0  0  0  0
  174.9866   20.5227   45.9807 H   0  0  0  0  0  0  0  0  0  0  0  0
  173.8035   20.2559   48.1625 H   0  0  0  0  0  0  0  0  0  0  0  0
  175.1830   20.1280   51.1910 H   0  0  0  0  0  0  0  0  0  0  0  0
  180.5740   22.5520   51.5360 H   0  0  0  0  0  0  0  0  0  0  0  0
  181.7517   20.4409   49.4085 H   0  0  0  0  0  0  0  0  0  0  0  0
  184.1108   21.0586   48.9464 H   0  0  0  0  0  0  0  0  0  0  0  0
  185.1701   24.4866   48.4262 H   0  0  0  0  0  0  0  0  0  0  0  0
  1  2  1  0
  2  3  2  0
  3  4  1  0
  4  5  1  0
  5  6  1  0
  6  7  1  0
  7  8  2  0
  8  9  1  0
  9 10  2  0
 10 11  1  0
 11 12  1  0
 11 13  2  0
 13 14  1  0
 14 15  2  0
 14 16  1  0
 16 17  1  0
  4 18  2  0
 18 19  1  0
 19 20  2  0
 20 21  1  0
 21 22  1  0
 21 23  1  0
 20  2  1  0
 16  5  2  0
 13  7  1  0
  1 24  1  0
  1 25  1  0
  1 26  1  0
  3 27  1  0
  8 28  1  0
  9 29  1  0
 10 30  1  0
 12 31  1  0
 17 32  1  0
 18 33  1  0
 19 34  1  0
 21 35  1  0
M  END
>  <meeko>  (7) 
{"is_sidechain": [false], "free_energy": -7.287, "intermolecular_energy": -8.365, "internal_energy": -0.496}

$$$$
cand_016_out
     RDKit          3D

 35 37  0  0  0  0  0  0  0  0999 V2000
  178.4960   21.0200   46.4760 C   0  0  0  0  0  0  0  0  0  0  0  0
  177.3410   20.8830   47.4300 C   0  0  0  0  0  0  0  0  0  0  0  0
  177.2060   21.8170   48.4740 C   0  0  0  0  0  0  0  0  0  0  0  0
  176.1470   21.7480   49.3900 C   0  0  0  0  0  0  0  0  0  0  0  0
  175.9910   22.7400   50.4750 C   0  0  0  0  0  0  0  0  0  0  0  0
  175.4710   23.9510   50.0300 O   0  0  0  0  0  0  0  0  0  0  0  0
  175.2750   24.9600   50.9360 C   0  0  0  0  0  0  0  0  0  0  0  0
  174.7670   26.1640   50.4440 C   0  0  0  0  0  0  0  0  0  0  0  0
  174.5430   27.2330   51.3140 C   0  0  0  0  0  0  0  0  0  0  0  0
  174.8270   27.1000   52.6740 C   0  0  0  0  0  0  0  0  0  0  0  0
  175.3340   25.8990   53.1630 C   0  0  0  0  0  0  0  0  0  0  0  0
  175.5880   25.8360   54.5060 O   0  0  0  0  0  0  0  0  0  0  0  0
  175.5590   24.8290   52.2920 C   0  0  0  0  0  0  0  0  0  0  0  0
  176.0910   23.5500   52.7650 C   0  0  0  0  0  0  0  0  0  0  0  0
  176.3580   23.3520   53.9480 O   0  0  0  0  0  0  0  0  0  0  0  0
  176.3010   22.4820   51.7590 C   0  0  0  0  0  0  0  0  0  0  0  0
  176.7900   21.2740   52.2170 O   0  0  0  0  0  0  0  0  0  0  0  0
  175.1980   20.7320   49.2340 C   0  0  0  0  0  0  0  0  0  0  0  0
  175.3120   19.8020   48.1980 C   0  0  0  0  0  0  0  0  0  0  0  0
  176.3740   19.8660   47.2820 C   0  0  0  0  0  0  0  0  0  0  0  0
  176.4690   18.8310   46.1840 C   0  0  0  0  0  0  0  0  0  0  0  0
  177.6660   18.1750   46.1580 F   0  0  0  0  0  0  0  0  0  0  0  0
  175.5240   17.8560   46.2850 F   0  0  0  0  0  0  0  0  0  0  0  0
  179.4307   21.1309   47.0453 H   0  0  0  0  0  0  0  0  0  0  0  0
  178.5568   20.1228   45.8425 H   0  0  0  0  0  0  0  0  0  0  0  0
  178.3452   21.9066   45.8425 H   0  0  0  0  0  0  0  0  0  0  0  0
  177.9499   22.6212   48.5738 H   0  0  0  0  0  0  0  0  0  0  0  0
  174.5435   26.2703   49.3722 H   0  0  0  0  0  0  0  0  0  0  0  0
  174.1421   28.1814   50.9269 H   0  0  0  0  0  0  0  0  0  0  0  0
  174.6505   27.9428   53.3585 H   0  0  0  0  0  0  0  0  0  0  0  0
  176.2510   25.2590   54.8310 H   0  0  0  0  0  0  0  0  0  0  0  0
  176.2200   20.6730   52.6560 H   0  0  0  0  0  0  0  0  0  0  0  0
  174.3528   20.6648   49.9348 H   0  0  0  0  0  0  0  0  0  0  0  0
  174.5581   19.0072   48.0983 H   0  0  0  0  0  0  0  0  0  0  0  0
  176.3290   19.4290   45.2714 H   0  0  0  0  0  0  0  0  0  0  0  0
  1  2  1  0
  2  3  2  0
  3  4  1  0
  4  5  1  0
  5  6  1  0
  6  7  1  0
  7  8  2  0
  8  9  1  0
  9 10  2  0
 10 11  1  0
 11 12  1  0
 11 13  2  0
 13 14  1  0
 14 15  2  0
 14 16  1  0
 16 17  1  0
  4 18  2  0
 18 19  1  0
 19 20  2  0
 20 21  1  0
 21 22  1  0
 21 23  1  0
 20  2  1  0
 16  5  2  0
 13  7  1  0
  1 24  1  0
  1 25  1  0
  1 26  1  0
  3 27  1  0
  8 28  1  0
  9 29  1  0
 10 30  1  0
 12 31  1  0
 17 32  1  0
 18 33  1  0
 19 34  1  0
 21 35  1  0
M  END
>  <meeko>  (8) 
{"is_sidechain": [false], "free_energy": -7.264, "intermolecular_energy": -8.502, "internal_energy": -0.331}

$$$$
cand_016_out
     RDKit          3D

 35 37  0  0  0  0  0  0  0  0999 V2000
  175.5910   18.7300   47.4120 C   0  0  0  0  0  0  0  0  0  0  0  0
  176.0100   20.1450   47.7080 C   0  0  0  0  0  0  0  0  0  0  0  0
  175.2230   20.9180   48.5820 C   0  0  0  0  0  0  0  0  0  0  0  0
  175.5650   22.2390   48.9060 C   0  0  0  0  0  0  0  0  0  0  0  0
  174.7520   23.0460   49.8400 C   0  0  0  0  0  0  0  0  0  0  0  0
  173.7290   23.7420   49.2050 O   0  0  0  0  0  0  0  0  0  0  0  0
  172.8980   24.5300   49.9570 C   0  0  0  0  0  0  0  0  0  0  0  0
  171.8960   25.2240   49.2770 C   0  0  0  0  0  0  0  0  0  0  0  0
  171.0130   26.0450   49.9840 C   0  0  0  0  0  0  0  0  0  0  0  0
  171.1330   26.1720   51.3690 C   0  0  0  0  0  0  0  0  0  0  0  0
  172.1340   25.4790   52.0450 C   0  0  0  0  0  0  0  0  0  0  0  0
  172.1940   25.6490   53.4010 O   0  0  0  0  0  0  0  0  0  0  0  0
  173.0170   24.6590   51.3380 C   0  0  0  0  0  0  0  0  0  0  0  0
  174.0830   23.9140   52.0100 C   0  0  0  0  0  0  0  0  0  0  0  0
  174.2480   23.9680   53.2270 O   0  0  0  0  0  0  0  0  0  0  0  0
  174.9710   23.0790   51.1680 C   0  0  0  0  0  0  0  0  0  0  0  0
  175.9650   22.3690   51.8140 O   0  0  0  0  0  0  0  0  0  0  0  0
  176.7320   22.7780   48.3540 C   0  0  0  0  0  0  0  0  0  0  0  0
  177.5290   22.0210   47.4920 C   0  0  0  0  0  0  0  0  0  0  0  0
  177.1860   20.6990   47.1630 C   0  0  0  0  0  0  0  0  0  0  0  0
  178.0680   19.9200   46.2140 C   0  0  0  0  0  0  0  0  0  0  0  0
  178.6740   20.7010   45.2720 F   0  0  0  0  0  0  0  0  0  0  0  0
  179.0800   19.2600   46.8430 F   0  0  0  0  0  0  0  0  0  0  0  0
  175.4310   18.1897   48.3567 H   0  0  0  0  0  0  0  0  0  0  0  0
  174.6567   18.7381   46.8315 H   0  0  0  0  0  0  0  0  0  0  0  0
  176.3791   18.2281   46.8315 H   0  0  0  0  0  0  0  0  0  0  0  0
  174.3173   20.4751   49.0219 H   0  0  0  0  0  0  0  0  0  0  0  0
  171.8013   25.1249   48.1856 H   0  0  0  0  0  0  0  0  0  0  0  0
  170.2227   26.5916   49.4485 H   0  0  0  0  0  0  0  0  0  0  0  0
  170.4381   26.8183   51.9253 H   0  0  0  0  0  0  0  0  0  0  0  0
  172.8180   25.1660   53.9070 H   0  0  0  0  0  0  0  0  0  0  0  0
  176.7820   22.7840   52.0150 H   0  0  0  0  0  0  0  0  0  0  0  0
  177.0251   23.8090   48.6014 H   0  0  0  0  0  0  0  0  0  0  0  0
  178.4391   22.4668   47.0643 H   0  0  0  0  0  0  0  0  0  0  0  0
  177.3633   19.2160   45.7472 H   0  0  0  0  0  0  0  0  0  0  0  0
  1  2  1  0
  2  3  2  0
  3  4  1  0
  4  5  1  0
  5  6  1  0
  6  7  1  0
  7  8  2  0
  8  9  1  0
  9 10  2  0
 10 11  1  0
 11 12  1  0
 11 13  2  0
 13 14  1  0
 14 15  2  0
 14 16  1  0
 16 17  1  0
  4 18  2  0
 18 19  1  0
 19 20  2  0
 20 21  1  0
 21 22  1  0
 21 23  1  0
 20  2  1  0
 16  5  2  0
 13  7  1  0
  1 24  1  0
  1 25  1  0
  1 26  1  0
  3 27  1  0
  8 28  1  0
  9 29  1  0
 10 30  1  0
 12 31  1  0
 17 32  1  0
 18 33  1  0
 19 34  1  0
 21 35  1  0
M  END
>  <meeko>  (9) 
{"is_sidechain": [false], "free_energy": -7.249, "intermolecular_energy": -8.291, "internal_energy": -0.525}

$$$$
