cand_042_out
     RDKit          3D

 38 40  0  0  0  0  0  0  0  0999 V2000
  181.3140   14.7360   41.3260 C   0  0  0  0  0  0  0  0  0  0  0  0
  181.9810   14.8320   42.6900 C   0  0  0  0  0  0  0  0  0  0  0  0
  181.2960   15.8410   43.5850 C   0  0  0  0  0  0  0  0  0  0  0  0
  181.6110   17.1990   43.4250 C   0  0  0  0  0  0  0  0  0  0  0  0
  181.0200   18.1770   44.2280 C   0  0  0  0  0  0  0  0  0  0  0  0
  180.0910   17.8250   45.2110 C   0  0  0  0  0  0  0  0  0  0  0  0
  179.4670   18.8350   46.0920 C   0  0  0  0  0  0  0  0  0  0  0  0
  178.0780   18.8010   46.0560 O   0  0  0  0  0  0  0  0  0  0  0  0
  177.3720   19.6870   46.8270 C   0  0  0  0  0  0  0  0  0  0  0  0
  175.9800   19.6070   46.7710 C   0  0  0  0  0  0  0  0  0  0  0  0
  175.2010   20.4810   47.5310 C   0  0  0  0  0  0  0  0  0  0  0  0
  175.8120   21.4360   48.3470 C   0  0  0  0  0  0  0  0  0  0  0  0
  177.2020   21.5120   48.4020 C   0  0  0  0  0  0  0  0  0  0  0  0
  177.7350   22.4710   49.2200 O   0  0  0  0  0  0  0  0  0  0  0  0
  177.9820   20.6370   47.6410 C   0  0  0  0  0  0  0  0  0  0  0  0
  179.4430   20.6850   47.6690 C   0  0  0  0  0  0  0  0  0  0  0  0
  180.0550   21.5010   48.3570 O   0  0  0  0  0  0  0  0  0  0  0  0
  180.1770   19.7080   46.8330 C   0  0  0  0  0  0  0  0  0  0  0  0
  181.5580   19.7710   46.8580 O   0  0  0  0  0  0  0  0  0  0  0  0
  179.7870   16.4650   45.3830 C   0  0  0  0  0  0  0  0  0  0  0  0
  180.3800   15.4670   44.5880 C   0  0  0  0  0  0  0  0  0  0  0  0
  179.9930   14.0320   44.8170 C   0  0  0  0  0  0  0  0  0  0  0  0
  180.2329   14.5804   41.4566 H   0  0  0  0  0  0  0  0  0  0  0  0
  181.4855   15.6681   40.7676 H   0  0  0  0  0  0  0  0  0  0  0  0
  181.7413   13.8901   40.7676 H   0  0  0  0  0  0  0  0  0  0  0  0
  181.9439   13.8449   43.1739 H   0  0  0  0  0  0  0  0  0  0  0  0
  183.0195   15.1615   42.5384 H   0  0  0  0  0  0  0  0  0  0  0  0
  182.3359   17.4985   42.6538 H   0  0  0  0  0  0  0  0  0  0  0  0
  181.2882   19.2342   44.0854 H   0  0  0  0  0  0  0  0  0  0  0  0
  175.4971   18.8559   46.1286 H   0  0  0  0  0  0  0  0  0  0  0  0
  174.1037   20.4176   47.4873 H   0  0  0  0  0  0  0  0  0  0  0  0
  175.1976   22.1258   48.9442 H   0  0  0  0  0  0  0  0  0  0  0  0
  177.5710   23.3770   49.0490 H   0  0  0  0  0  0  0  0  0  0  0  0
  181.9870   20.4890   47.2780 H   0  0  0  0  0  0  0  0  0  0  0  0
  179.0658   16.1719   46.1602 H   0  0  0  0  0  0  0  0  0  0  0  0
  179.9398   13.8346   45.8978 H   0  0  0  0  0  0  0  0  0  0  0  0
  179.0109   13.8397   44.3603 H   0  0  0  0  0  0  0  0  0  0  0  0
  180.7452   13.3720   44.3603 H   0  0  0  0  0  0  0  0  0  0  0  0
  1  2  1  0
  2  3  1  0
  3  4  2  0
  4  5  1  0
  5  6  2  0
  6  7  1  0
  7  8  1  0
  8  9  1  0
  9 10  2  0
 10 11  1  0
 11 12  2  0
 12 13  1  0
 13 14  1  0
 13 15  2  0
 15 16  1  0
 16 17  2  0
 16 18  1  0
 18 19  1  0
  6 20  1  0
 20 21  2  0
 21 22  1  0
 21  3  1  0
 18  7  2  0
 15  9  1  0
  1 23  1  0
  1 24  1  0
  1 25  1  0
  2 26  1  0
  2 27  1  0
  4 28  1  0
  5 29  1  0
 10 30  1  0
 11 31  1  0
 12 32  1  0
 14 33  1  0
 19 34  1  0
 20 35  1  0
 22 36  1  0
 22 37  1  0
 22 38  1  0
M  END
>  <meeko>  (1) 
{"is_sidechain": [false], "free_energy": -8.082, "intermolecular_energy": -9.5, "internal_energy": -0.271}

$$$$
cand_042_out
     RDKit          3D

 38 40  0  0  0  0  0  0  0  0999 V2000
  181.1080   14.9580   40.8720 C   0  0  0  0  0  0  0  0  0  0  0  0
  181.2140   14.4710   42.3090 C   0  0  0  0  0  0  0  0  0  0  0  0
  180.9130   15.5710   43.3030 C   0  0  0  0  0  0  0  0  0  0  0  0
  181.3870   16.8640   43.0310 C   0  0  0  0  0  0  0  0  0  0  0  0
  181.1500   17.9190   43.9160 C   0  0  0  0  0  0  0  0  0  0  0  0
  180.4280   17.7130   45.0940 C   0  0  0  0  0  0  0  0  0  0  0  0
  180.1830   18.8050   46.0600 C   0  0  0  0  0  0  0  0  0  0  0  0
  181.3540   19.3170   46.6060 O   0  0  0  0  0  0  0  0  0  0  0  0
  181.2700   20.3360   47.5180 C   0  0  0  0  0  0  0  0  0  0  0  0
  182.4710   20.8290   48.0300 C   0  0  0  0  0  0  0  0  0  0  0  0
  182.4570   21.8670   48.9640 C   0  0  0  0  0  0  0  0  0  0  0  0
  181.2430   22.4120   49.3880 C   0  0  0  0  0  0  0  0  0  0  0  0
  180.0460   21.9190   48.8740 C   0  0  0  0  0  0  0  0  0  0  0  0
  178.8930   22.4970   49.3320 O   0  0  0  0  0  0  0  0  0  0  0  0
  180.0600   20.8810   47.9390 C   0  0  0  0  0  0  0  0  0  0  0  0
  178.8260   20.3330   47.3760 C   0  0  0  0  0  0  0  0  0  0  0  0
  177.7180   20.7550   47.7030 O   0  0  0  0  0  0  0  0  0  0  0  0
  178.9510   19.2400   46.3850 C   0  0  0  0  0  0  0  0  0  0  0  0
  177.7760   18.7220   45.8690 O   0  0  0  0  0  0  0  0  0  0  0  0
  179.9670   16.4160   45.3740 C   0  0  0  0  0  0  0  0  0  0  0  0
  180.2040   15.3410   44.4980 C   0  0  0  0  0  0  0  0  0  0  0  0
  179.6640   13.9830   44.8540 C   0  0  0  0  0  0  0  0  0  0  0  0
  180.8741   16.0328   40.8654 H   0  0  0  0  0  0  0  0  0  0  0  0
  182.0642   14.7877   40.3557 H   0  0  0  0  0  0  0  0  0  0  0  0
  180.3090   14.4057   40.3557 H   0  0  0  0  0  0  0  0  0  0  0  0
  180.4975   13.6501   42.4597 H   0  0  0  0  0  0  0  0  0  0  0  0
  182.2470   14.1330   42.4782 H   0  0  0  0  0  0  0  0  0  0  0  0
  181.9538   17.0496   42.1067 H   0  0  0  0  0  0  0  0  0  0  0  0
  181.5360   18.9223   43.6827 H   0  0  0  0  0  0  0  0  0  0  0  0
  183.4280   20.4002   47.6980 H   0  0  0  0  0  0  0  0  0  0  0  0
  183.4039   22.2561   49.3665 H   0  0  0  0  0  0  0  0  0  0  0  0
  181.2322   23.2280   50.1256 H   0  0  0  0  0  0  0  0  0  0  0  0
  178.0660   22.2320   48.9830 H   0  0  0  0  0  0  0  0  0  0  0  0
  177.7100   18.5320   44.9550 H   0  0  0  0  0  0  0  0  0  0  0  0
  179.4058   16.2361   46.3028 H   0  0  0  0  0  0  0  0  0  0  0  0
  179.6231   13.8801   45.9484 H   0  0  0  0  0  0  0  0  0  0  0  0
  178.6524   13.8698   44.4370 H   0  0  0  0  0  0  0  0  0  0  0  0
  180.3216   13.2061   44.4370 H   0  0  0  0  0  0  0  0  0  0  0  0
  1  2  1  0
  2  3  1  0
  3  4  2  0
  4  5  1  0
  5  6  2  0
  6  7  1  0
  7  8  1  0
  8  9  1  0
  9 10  2  0
 10 11  1  0
 11 12  2  0
 12 13  1  0
 13 14  1  0
 13 15  2  0
 15 16  1  0
 16 17  2  0
 16 18  1  0
 18 19  1  0
  6 20  1  0
 20 21  2  0
 21 22  1  0
 21  3  1  0
 18  7  2  0
 15  9  1  0
  1 23  1  0
  1 24  1  0
  1 25  1  0
  2 26  1  0
  2 27  1  0
  4 28  1  0
  5 29  1  0
 10 30  1  0
 11 31  1  0
 12 32  1  0
 14 33  1  0
 19 34  1  0
 20 35  1  0
 22 36  1  0
 22 37  1  0
 22 38  1  0
M  END
>  <meeko>  (2) 
{"is_sidechain": [false], "free_energy": -7.595, "intermolecular_energy": -8.873, "internal_energy": -0.325}

$$$$
cand_042_out
     RDKit          3D

 38 40  0  0  0  0  0  0  0  0999 V2000
  171.7670   24.3860   48.6610 C   0  0  0  0  0  0  0  0  0  0  0  0
  172.5260   23.9820   49.9160 C   0  0  0  0  0  0  0  0  0  0  0  0
  173.9340   23.5270   49.6040 C   0  0  0  0  0  0  0  0  0  0  0  0
  174.1300   22.2030   49.1810 C   0  0  0  0  0  0  0  0  0  0  0  0
  175.4080   21.7210   48.8880 C   0  0  0  0  0  0  0  0  0  0  0  0
  176.5270   22.5500   49.0050 C   0  0  0  0  0  0  0  0  0  0  0  0
  177.8930   22.0600   48.7250 C   0  0  0  0  0  0  0  0  0  0  0  0
  178.0300   21.5430   47.4420 O   0  0  0  0  0  0  0  0  0  0  0  0
  179.2490   21.0530   47.0510 C   0  0  0  0  0  0  0  0  0  0  0  0
  179.3450   20.5570   45.7500 C   0  0  0  0  0  0  0  0  0  0  0  0
  180.5590   20.0420   45.2890 C   0  0  0  0  0  0  0  0  0  0  0  0
  181.6750   20.0220   46.1270 C   0  0  0  0  0  0  0  0  0  0  0  0
  181.5760   20.5180   47.4250 C   0  0  0  0  0  0  0  0  0  0  0  0
  182.7080   20.4680   48.1920 O   0  0  0  0  0  0  0  0  0  0  0  0
  180.3620   21.0350   47.8860 C   0  0  0  0  0  0  0  0  0  0  0  0
  180.2160   21.5650   49.2420 C   0  0  0  0  0  0  0  0  0  0  0  0
  181.1510   21.5750   50.0410 O   0  0  0  0  0  0  0  0  0  0  0  0
  178.8890   22.0960   49.6300 C   0  0  0  0  0  0  0  0  0  0  0  0
  178.7600   22.5830   50.9180 O   0  0  0  0  0  0  0  0  0  0  0  0
  176.3330   23.8700   49.4440 C   0  0  0  0  0  0  0  0  0  0  0  0
  175.0540   24.3690   49.7500 C   0  0  0  0  0  0  0  0  0  0  0  0
  174.9210   25.7990   50.1970 C   0  0  0  0  0  0  0  0  0  0  0  0
  170.8288   24.8854   48.9447 H   0  0  0  0  0  0  0  0  0  0  0  0
  172.3837   25.0752   48.0654 H   0  0  0  0  0  0  0  0  0  0  0  0
  171.5397   23.4895   48.0654 H   0  0  0  0  0  0  0  0  0  0  0  0
  172.5741   24.8457   50.5955 H   0  0  0  0  0  0  0  0  0  0  0  0
  171.9916   23.1401   50.3803 H   0  0  0  0  0  0  0  0  0  0  0  0
  173.2629   21.5339   49.0785 H   0  0  0  0  0  0  0  0  0  0  0  0
  175.5349   20.6782   48.5618 H   0  0  0  0  0  0  0  0  0  0  0  0
  178.4661   20.5716   45.0886 H   0  0  0  0  0  0  0  0  0  0  0  0
  180.6356   19.6515   44.2635 H   0  0  0  0  0  0  0  0  0  0  0  0
  182.6303   19.6156   45.7634 H   0  0  0  0  0  0  0  0  0  0  0  0
  183.5430   20.6480   47.8080 H   0  0  0  0  0  0  0  0  0  0  0  0
  178.3050   23.3860   51.0720 H   0  0  0  0  0  0  0  0  0  0  0  0
  177.2052   24.5317   49.5514 H   0  0  0  0  0  0  0  0  0  0  0  0
  174.9171   25.8407   51.2962 H   0  0  0  0  0  0  0  0  0  0  0  0
  175.7686   26.3842   49.8108 H   0  0  0  0  0  0  0  0  0  0  0  0
  173.9800   26.2179   49.8108 H   0  0  0  0  0  0  0  0  0  0  0  0
  1  2  1  0
  2  3  1  0
  3  4  2  0
  4  5  1  0
  5  6  2  0
  6  7  1  0
  7  8  1  0
  8  9  1  0
  9 10  2  0
 10 11  1  0
 11 12  2  0
 12 13  1  0
 13 14  1  0
 13 15  2  0
 15 16  1  0
 16 17  2  0
 16 18  1  0
 18 19  1  0
  6 20  1  0
 20 21  2  0
 21 22  1  0
 21  3  1  0
 18  7  2  0
 15  9  1  0
  1 23  1  0
  1 24  1  0
  1 25  1  0
  2 26  1  0
  2 27  1  0
  4 28  1  0
  5 29  1  0
 10 30  1  0
 11 31  1  0
 12 32  1  0
 14 33  1  0
 19 34  1  0
 20 35  1  0
 22 36  1  0
 22 37  1  0
 22 38  1  0
M  END
>  <meeko>  (3) 
{"is_sidechain": [false], "free_energy": -7.352, "intermolecular_energy": -8.646, "internal_energy": -0.266}

$$$$
cand_042_out
     RDKit          3D

 38 40  0  0  0  0  0  0  0  0999 V2000
  178.9630   20.3310   46.7390 C   0  0  0  0  0  0  0  0  0  0  0  0
  177.5880   20.7650   46.2550 C   0  0  0  0  0  0  0  0  0  0  0  0
  176.7270   21.2850   47.3850 C   0  0  0  0  0  0  0  0  0  0  0  0
  176.8920   22.6190   47.7910 C   0  0  0  0  0  0  0  0  0  0  0  0
  176.1340   23.1530   48.8350 C   0  0  0  0  0  0  0  0  0  0  0  0
  175.1850   22.3720   49.5000 C   0  0  0  0  0  0  0  0  0  0  0  0
  174.3860   22.9050   50.6240 C   0  0  0  0  0  0  0  0  0  0  0  0
  175.1640   23.2570   51.7210 O   0  0  0  0  0  0  0  0  0  0  0  0
  174.5480   23.7650   52.8350 C   0  0  0  0  0  0  0  0  0  0  0  0
  175.3690   24.1180   53.9070 C   0  0  0  0  0  0  0  0  0  0  0  0
  174.8050   24.6410   55.0730 C   0  0  0  0  0  0  0  0  0  0  0  0
  173.4220   24.8110   55.1680 C   0  0  0  0  0  0  0  0  0  0  0  0
  172.6060   24.4580   54.0960 C   0  0  0  0  0  0  0  0  0  0  0  0
  171.2600   24.6490   54.2560 O   0  0  0  0  0  0  0  0  0  0  0  0
  173.1700   23.9350   52.9290 C   0  0  0  0  0  0  0  0  0  0  0  0
  172.3490   23.5520   51.7810 C   0  0  0  0  0  0  0  0  0  0  0  0
  171.1240   23.6640   51.7900 O   0  0  0  0  0  0  0  0  0  0  0  0
  173.0450   23.0150   50.5890 C   0  0  0  0  0  0  0  0  0  0  0  0
  172.2570   22.6440   49.5150 O   0  0  0  0  0  0  0  0  0  0  0  0
  175.0310   21.0340   49.1050 C   0  0  0  0  0  0  0  0  0  0  0  0
  175.7920   20.4770   48.0600 C   0  0  0  0  0  0  0  0  0  0  0  0
  175.5590   19.0400   47.6790 C   0  0  0  0  0  0  0  0  0  0  0  0
  178.9798   20.3257   47.8389 H   0  0  0  0  0  0  0  0  0  0  0  0
  179.1815   19.3202   46.3641 H   0  0  0  0  0  0  0  0  0  0  0  0
  179.7222   21.0332   46.3641 H   0  0  0  0  0  0  0  0  0  0  0  0
  177.7102   21.5615   45.5063 H   0  0  0  0  0  0  0  0  0  0  0  0
  177.0870   19.8861   45.8231 H   0  0  0  0  0  0  0  0  0  0  0  0
  177.6301   23.2534   47.2785 H   0  0  0  0  0  0  0  0  0  0  0  0
  176.2855   24.1998   49.1373 H   0  0  0  0  0  0  0  0  0  0  0  0
  176.4584   23.9846   53.8338 H   0  0  0  0  0  0  0  0  0  0  0  0
  175.4515   24.9196   55.9182 H   0  0  0  0  0  0  0  0  0  0  0  0
  172.9786   25.2225   56.0867 H   0  0  0  0  0  0  0  0  0  0  0  0
  170.7520   25.0110   53.5570 H   0  0  0  0  0  0  0  0  0  0  0  0
  171.3590   22.9040   49.4810 H   0  0  0  0  0  0  0  0  0  0  0  0
  174.2956   20.4035   49.6262 H   0  0  0  0  0  0  0  0  0  0  0  0
  175.4602   18.4307   48.5895 H   0  0  0  0  0  0  0  0  0  0  0  0
  174.6367   18.9632   47.0845 H   0  0  0  0  0  0  0  0  0  0  0  0
  176.4098   18.6757   47.0845 H   0  0  0  0  0  0  0  0  0  0  0  0
  1  2  1  0
  2  3  1  0
  3  4  2  0
  4  5  1  0
  5  6  2  0
  6  7  1  0
  7  8  1  0
  8  9  1  0
  9 10  2  0
 10 11  1  0
 11 12  2  0
 12 13  1  0
 13 14  1  0
 13 15  2  0
 15 16  1  0
 16 17  2  0
 16 18  1  0
 18 19  1  0
  6 20  1  0
 20 21  2  0
 21 22  1  0
 21  3  1  0
 18  7  2  0
 15  9  1  0
  1 23  1  0
  1 24  1  0
  1 25  1  0
  2 26  1  0
  2 27  1  0
  4 28  1  0
  5 29  1  0
 10 30  1  0
 11 31  1  0
 12 32  1  0
 14 33  1  0
 19 34  1  0
 20 35  1  0
 22 36  1  0
 22 37  1  0
 22 38  1  0
M  END
>  <meeko>  (4) 
{"is_sidechain": [false], "free_energy": -7.278, "intermolecular_energy": -8.477, "internal_energy": -0.348}

$$$$
cand_042_out
     RDKit          3D

 38 40  0  0  0  0  0  0  0  0999 V2000
  180.4560   18.5410   45.4470 C   0  0  0  0  0  0  0  0  0  0  0  0
  180.3090   20.0520   45.3460 C   0  0  0  0  0  0  0  0  0  0  0  0
  179.4980   20.6200   46.4890 C   0  0  0  0  0  0  0  0  0  0  0  0
  178.1570   20.2220   46.6180 C   0  0  0  0  0  0  0  0  0  0  0  0
  177.3540   20.7200   47.6470 C   0  0  0  0  0  0  0  0  0  0  0  0
  177.8680   21.6260   48.5790 C   0  0  0  0  0  0  0  0  0  0  0  0
  177.0350   22.1870   49.6630 C   0  0  0  0  0  0  0  0  0  0  0  0
  175.9330   22.8900   49.1890 O   0  0  0  0  0  0  0  0  0  0  0  0
  175.0750   23.4640   50.0900 C   0  0  0  0  0  0  0  0  0  0  0  0
  173.9750   24.1480   49.5710 C   0  0  0  0  0  0  0  0  0  0  0  0
  173.0620   24.7570   50.4340 C   0  0  0  0  0  0  0  0  0  0  0  0
  173.2480   24.6840   51.8160 C   0  0  0  0  0  0  0  0  0  0  0  0
  174.3470   24.0000   52.3320 C   0  0  0  0  0  0  0  0  0  0  0  0
  174.4700   23.9680   53.6940 O   0  0  0  0  0  0  0  0  0  0  0  0
  175.2600   23.3900   51.4670 C   0  0  0  0  0  0  0  0  0  0  0  0
  176.4270   22.6630   51.9670 C   0  0  0  0  0  0  0  0  0  0  0  0
  176.6630   22.5600   53.1700 O   0  0  0  0  0  0  0  0  0  0  0  0
  177.3290   22.0460   50.9690 C   0  0  0  0  0  0  0  0  0  0  0  0
  178.4360   21.3720   51.4530 O   0  0  0  0  0  0  0  0  0  0  0  0
  179.2040   22.0360   48.4400 C   0  0  0  0  0  0  0  0  0  0  0  0
  180.0250   21.5500   47.4050 C   0  0  0  0  0  0  0  0  0  0  0  0
  181.4520   22.0200   47.3300 C   0  0  0  0  0  0  0  0  0  0  0  0
  180.4848   18.2454   46.5061 H   0  0  0  0  0  0  0  0  0  0  0  0
  179.6008   18.0556   44.9539 H   0  0  0  0  0  0  0  0  0  0  0  0
  181.3887   18.2296   44.9539 H   0  0  0  0  0  0  0  0  0  0  0  0
  181.3100   20.5079   45.3599 H   0  0  0  0  0  0  0  0  0  0  0  0
  179.7808   20.2800   44.4084 H   0  0  0  0  0  0  0  0  0  0  0  0
  177.7326   19.5072   45.8976 H   0  0  0  0  0  0  0  0  0  0  0  0
  176.3058   20.3956   47.7246 H   0  0  0  0  0  0  0  0  0  0  0  0
  173.8273   24.2073   48.4826 H   0  0  0  0  0  0  0  0  0  0  0  0
  172.1945   25.2953   50.0245 H   0  0  0  0  0  0  0  0  0  0  0  0
  172.5290   25.1651   52.4955 H   0  0  0  0  0  0  0  0  0  0  0  0
  173.8010   23.5700   54.2150 H   0  0  0  0  0  0  0  0  0  0  0  0
  178.6610   21.4320   52.3590 H   0  0  0  0  0  0  0  0  0  0  0  0
  179.6202   22.7565   49.1595 H   0  0  0  0  0  0  0  0  0  0  0  0
  181.8489   22.1507   48.3475 H   0  0  0  0  0  0  0  0  0  0  0  0
  182.0562   21.2734   46.7938 H   0  0  0  0  0  0  0  0  0  0  0  0
  181.4943   22.9795   46.7938 H   0  0  0  0  0  0  0  0  0  0  0  0
  1  2  1  0
  2  3  1  0
  3  4  2  0
  4  5  1  0
  5  6  2  0
  6  7  1  0
  7  8  1  0
  8  9  1  0
  9 10  2  0
 10 11  1  0
 11 12  2  0
 12 13  1  0
 13 14  1  0
 13 15  2  0
 15 16  1  0
 16 17  2  0
 16 18  1  0
 18 19  1  0
  6 20  1  0
 20 21  2  0
 21 22  1  0
 21  3  1  0
 18  7  2  0
 15  9  1  0
  1 23  1  0
  1 24  1  0
  1 25  1  0
  2 26  1  0
  2 27  1  0
  4 28  1  0
  5 29  1  0
 10 30  1  0
 11 31  1  0
 12 32  1  0
 14 33  1  0
 19 34  1  0
 20 35  1  0
 22 36  1  0
 22 37  1  0
 22 38  1  0
M  END
>  <meeko>  (5) 
{"is_sidechain": [false], "free_energy": -7.206, "intermolecular_energy": -8.433, "internal_energy": -0.308}

$$$$
cand_042_out
     RDKit          3D

 38 40  0  0  0  0  0  0  0  0999 V2000
  175.5550   17.8350   46.3350 C   0  0  0  0  0  0  0  0  0  0  0  0
  176.7110   18.8240   46.3450 C   0  0  0  0  0  0  0  0  0  0  0  0
  176.5710   19.8480   47.4480 C   0  0  0  0  0  0  0  0  0  0  0  0
  175.4730   19.7480   48.3170 C   0  0  0  0  0  0  0  0  0  0  0  0
  175.2830   20.6700   49.3490 C   0  0  0  0  0  0  0  0  0  0  0  0
  176.1880   21.7160   49.5460 C   0  0  0  0  0  0  0  0  0  0  0  0
  175.9990   22.7200   50.6140 C   0  0  0  0  0  0  0  0  0  0  0  0
  175.5280   23.9370   50.1350 O   0  0  0  0  0  0  0  0  0  0  0  0
  175.3090   24.9590   51.0220 C   0  0  0  0  0  0  0  0  0  0  0  0
  174.8220   26.1580   50.4990 C   0  0  0  0  0  0  0  0  0  0  0  0
  174.5770   27.2400   51.3480 C   0  0  0  0  0  0  0  0  0  0  0  0
  174.8200   27.1240   52.7190 C   0  0  0  0  0  0  0  0  0  0  0  0
  175.3060   25.9260   53.2370 C   0  0  0  0  0  0  0  0  0  0  0  0
  175.5230   25.8810   54.5870 O   0  0  0  0  0  0  0  0  0  0  0  0
  175.5500   24.8430   52.3880 C   0  0  0  0  0  0  0  0  0  0  0  0
  176.0600   23.5680   52.8910 C   0  0  0  0  0  0  0  0  0  0  0  0
  176.3050   23.3900   54.0830 O   0  0  0  0  0  0  0  0  0  0  0  0
  176.2770   22.4810   51.9090 C   0  0  0  0  0  0  0  0  0  0  0  0
  176.7710   21.2840   52.3960 O   0  0  0  0  0  0  0  0  0  0  0  0
  177.2780   21.8260   48.6670 C   0  0  0  0  0  0  0  0  0  0  0  0
  177.4800   20.9110   47.6180 C   0  0  0  0  0  0  0  0  0  0  0  0
  178.6800   21.0810   46.7270 C   0  0  0  0  0  0  0  0  0  0  0  0
  175.2712   17.5922   47.3697 H   0  0  0  0  0  0  0  0  0  0  0  0
  174.6951   18.2813   45.8141 H   0  0  0  0  0  0  0  0  0  0  0  0
  175.8628   16.9164   45.8141 H   0  0  0  0  0  0  0  0  0  0  0  0
  177.6504   18.2707   46.4913 H   0  0  0  0  0  0  0  0  0  0  0  0
  176.7093   19.3582   45.3834 H   0  0  0  0  0  0  0  0  0  0  0  0
  174.7501   18.9298   48.1830 H   0  0  0  0  0  0  0  0  0  0  0  0
  174.4119   20.5715   50.0134 H   0  0  0  0  0  0  0  0  0  0  0  0
  174.6314   26.2508   49.4196 H   0  0  0  0  0  0  0  0  0  0  0  0
  174.1922   28.1848   50.9365 H   0  0  0  0  0  0  0  0  0  0  0  0
  174.6280   27.9764   53.3873 H   0  0  0  0  0  0  0  0  0  0  0  0
  176.3980   25.8490   54.9200 H   0  0  0  0  0  0  0  0  0  0  0  0
  177.1490   21.2460   53.2510 H   0  0  0  0  0  0  0  0  0  0  0  0
  177.9934   22.6505   48.8027 H   0  0  0  0  0  0  0  0  0  0  0  0
  179.5807   21.2086   47.3454 H   0  0  0  0  0  0  0  0  0  0  0  0
  178.7944   20.1901   46.0920 H   0  0  0  0  0  0  0  0  0  0  0  0
  178.5424   21.9686   46.0920 H   0  0  0  0  0  0  0  0  0  0  0  0
  1  2  1  0
  2  3  1  0
  3  4  2  0
  4  5  1  0
  5  6  2  0
  6  7  1  0
  7  8  1  0
  8  9  1  0
  9 10  2  0
 10 11  1  0
 11 12  2  0
 12 13  1  0
 13 14  1  0
 13 15  2  0
 15 16  1  0
 16 17  2  0
 16 18  1  0
 18 19  1  0
  6 20  1  0
 20 21  2  0
 21 22  1  0
 21  3  1  0
 18  7  2  0
 15  9  1  0
  1 23  1  0
  1 24  1  0
  1 25  1  0
  2 26  1  0
  2 27  1  0
  4 28  1  0
  5 29  1  0
 10 30  1  0
 11 31  1  0
 12 32  1  0
 14 33  1  0
 19 34  1  0
 20 35  1  0
 22 36  1  0
 22 37  1  0
 22 38  1  0
M  END
>  <meeko>  (6) 
{"is_sidechain": [false], "free_energy": -7.199, "intermolecular_energy": -8.298, "internal_energy": -0.434}

$$$$
cand_042_out
     RDKit          3D

 38 40  0  0  0  0  0  0  0  0999 V2000
  186.0240   23.0240   49.0910 C   0  0  0  0  0  0  0  0  0  0  0  0
  185.0880   23.4590   47.9730 C   0  0  0  0  0  0  0  0  0  0  0  0
  183.6470   23.1100   48.2720 C   0  0  0  0  0  0  0  0  0  0  0  0
  183.3620   21.8340   48.7850 C   0  0  0  0  0  0  0  0  0  0  0  0
  182.0500   21.4500   49.0710 C   0  0  0  0  0  0  0  0  0  0  0  0
  180.9860   22.3300   48.8580 C   0  0  0  0  0  0  0  0  0  0  0  0
  179.5860   21.9420   49.1300 C   0  0  0  0  0  0  0  0  0  0  0  0
  178.8540   21.7120   47.9700 O   0  0  0  0  0  0  0  0  0  0  0  0
  177.5380   21.3440   48.0780 C   0  0  0  0  0  0  0  0  0  0  0  0
  176.8460   21.1100   46.8900 C   0  0  0  0  0  0  0  0  0  0  0  0
  175.5020   20.7320   46.9290 C   0  0  0  0  0  0  0  0  0  0  0  0
  174.8490   20.5910   48.1550 C   0  0  0  0  0  0  0  0  0  0  0  0
  175.5430   20.8250   49.3400 C   0  0  0  0  0  0  0  0  0  0  0  0
  174.8440   20.6690   50.5060 O   0  0  0  0  0  0  0  0  0  0  0  0
  176.8890   21.2010   49.3010 C   0  0  0  0  0  0  0  0  0  0  0  0
  177.6530   21.4570   50.5210 C   0  0  0  0  0  0  0  0  0  0  0  0
  177.1470   21.3610   51.6390 O   0  0  0  0  0  0  0  0  0  0  0  0
  179.0750   21.8430   50.3710 C   0  0  0  0  0  0  0  0  0  0  0  0
  179.7840   22.0950   51.5320 O   0  0  0  0  0  0  0  0  0  0  0  0
  181.2700   23.6010   48.3300 C   0  0  0  0  0  0  0  0  0  0  0  0
  182.5840   24.0010   48.0290 C   0  0  0  0  0  0  0  0  0  0  0  0
  182.8140   25.3840   47.4830 C   0  0  0  0  0  0  0  0  0  0  0  0
  185.5585   23.2403   50.0639 H   0  0  0  0  0  0  0  0  0  0  0  0
  186.2165   21.9441   49.0087 H   0  0  0  0  0  0  0  0  0  0  0  0
  186.9736   23.5731   49.0087 H   0  0  0  0  0  0  0  0  0  0  0  0
  185.1702   24.5484   47.8448 H   0  0  0  0  0  0  0  0  0  0  0  0
  185.3832   22.9269   47.0566 H   0  0  0  0  0  0  0  0  0  0  0  0
  184.1847   21.1262   48.9643 H   0  0  0  0  0  0  0  0  0  0  0  0
  181.8522   20.4435   49.4684 H   0  0  0  0  0  0  0  0  0  0  0  0
  177.3582   21.2230   45.9231 H   0  0  0  0  0  0  0  0  0  0  0  0
  174.9569   20.5450   45.9920 H   0  0  0  0  0  0  0  0  0  0  0  0
  173.7897   20.2960   48.1851 H   0  0  0  0  0  0  0  0  0  0  0  0
  173.9070   20.6650   50.4930 H   0  0  0  0  0  0  0  0  0  0  0  0
  179.5630   21.6450   52.3220 H   0  0  0  0  0  0  0  0  0  0  0  0
  180.4421   24.3018   48.1473 H   0  0  0  0  0  0  0  0  0  0  0  0
  182.9318   26.0923   48.3163 H   0  0  0  0  0  0  0  0  0  0  0  0
  183.7252   25.3881   46.8667 H   0  0  0  0  0  0  0  0  0  0  0  0
  181.9532   25.6828   46.8667 H   0  0  0  0  0  0  0  0  0  0  0  0
  1  2  1  0
  2  3  1  0
  3  4  2  0
  4  5  1  0
  5  6  2  0
  6  7  1  0
  7  8  1  0
  8  9  1  0
  9 10  2  0
 10 11  1  0
 11 12  2  0
 12 13  1  0
 13 14  1  0
 13 15  2  0
 15 16  1  0
 16 17  2  0
 16 18  1  0
 18 19  1  0
  6 20  1  0
 20 21  2  0
 21 22  1  0
 21  3  1  0
 18  7  2  0
 15  9  1  0
  1 23  1  0
  1 24  1  0
  1 25  1  0
  2 26  1  0
  2 27  1  0
  4 28  1  0
  5 29  1  0
 10 30  1  0
 11 31  1  0
 12 32  1  0
 14 33  1  0
 19 34  1  0
 20 35  1  0
 22 36  1  0
 22 37  1  0
 22 38  1  0
M  END
>  <meeko>  (7) 
{"is_sidechain": [false], "free_energy": -7.127, "intermolecular_energy": -8.215, "internal_energy": -0.433}

$$$$
cand_042_out
     RDKit          3D

 38 40  0  0  0  0  0  0  0  0999 V2000
  175.9450   19.0340   47.1410 C   0  0  0  0  0  0  0  0  0  0  0  0
  176.6170   19.9890   46.1670 C   0  0  0  0  0  0  0  0  0  0  0  0
  177.9260   20.5210   46.7070 C   0  0  0  0  0  0  0  0  0  0  0  0
  179.0770   19.7290   46.5680 C   0  0  0  0  0  0  0  0  0  0  0  0
  180.3120   20.1620   47.0550 C   0  0  0  0  0  0  0  0  0  0  0  0
  180.4340   21.4000   47.6910 C   0  0  0  0  0  0  0  0  0  0  0  0
  181.7240   21.8730   48.2380 C   0  0  0  0  0  0  0  0  0  0  0  0
  182.5590   22.4100   47.2650 O   0  0  0  0  0  0  0  0  0  0  0  0
  183.7900   22.8860   47.6370 C   0  0  0  0  0  0  0  0  0  0  0  0
  184.5890   23.4290   46.6310 C   0  0  0  0  0  0  0  0  0  0  0  0
  185.8550   23.9320   46.9420 C   0  0  0  0  0  0  0  0  0  0  0  0
  186.3210   23.8910   48.2580 C   0  0  0  0  0  0  0  0  0  0  0  0
  185.5200   23.3480   49.2600 C   0  0  0  0  0  0  0  0  0  0  0  0
  186.0390   23.3380   50.5260 O   0  0  0  0  0  0  0  0  0  0  0  0
  184.2530   22.8460   48.9490 C   0  0  0  0  0  0  0  0  0  0  0  0
  183.3810   22.2680   49.9710 C   0  0  0  0  0  0  0  0  0  0  0  0
  183.7230   22.1900   51.1500 O   0  0  0  0  0  0  0  0  0  0  0  0
  182.0550   21.7710   49.5380 C   0  0  0  0  0  0  0  0  0  0  0  0
  181.2450   21.2160   50.5120 O   0  0  0  0  0  0  0  0  0  0  0  0
  179.2800   22.1860   47.8440 C   0  0  0  0  0  0  0  0  0  0  0  0
  178.0260   21.7620   47.3660 C   0  0  0  0  0  0  0  0  0  0  0  0
  176.8370   22.6640   47.5490 C   0  0  0  0  0  0  0  0  0  0  0  0
  176.1652   19.3470   48.1723 H   0  0  0  0  0  0  0  0  0  0  0  0
  174.8573   19.0489   46.9777 H   0  0  0  0  0  0  0  0  0  0  0  0
  176.3264   18.0152   46.9777 H   0  0  0  0  0  0  0  0  0  0  0  0
  176.8119   19.4562   45.2246 H   0  0  0  0  0  0  0  0  0  0  0  0
  175.9424   20.8434   46.0089 H   0  0  0  0  0  0  0  0  0  0  0  0
  179.0047   18.7521   46.0676 H   0  0  0  0  0  0  0  0  0  0  0  0
  181.1984   19.5215   46.9366 H   0  0  0  0  0  0  0  0  0  0  0  0
  184.2230   23.4612   45.5942 H   0  0  0  0  0  0  0  0  0  0  0  0
  186.4855   24.3609   46.1492 H   0  0  0  0  0  0  0  0  0  0  0  0
  187.3179   24.2865   48.5026 H   0  0  0  0  0  0  0  0  0  0  0  0
  186.9320   23.0930   50.6640 H   0  0  0  0  0  0  0  0  0  0  0  0
  181.4710   21.3030   51.4160 H   0  0  0  0  0  0  0  0  0  0  0  0
  179.3585   23.1590   48.3510 H   0  0  0  0  0  0  0  0  0  0  0  0
  176.6476   22.8077   48.6230 H   0  0  0  0  0  0  0  0  0  0  0  0
  177.0396   23.6376   47.0789 H   0  0  0  0  0  0  0  0  0  0  0  0
  175.9539   22.2066   47.0789 H   0  0  0  0  0  0  0  0  0  0  0  0
  1  2  1  0
  2  3  1  0
  3  4  2  0
  4  5  1  0
  5  6  2  0
  6  7  1  0
  7  8  1  0
  8  9  1  0
  9 10  2  0
 10 11  1  0
 11 12  2  0
 12 13  1  0
 13 14  1  0
 13 15  2  0
 15 16  1  0
 16 17  2  0
 16 18  1  0
 18 19  1  0
  6 20  1  0
 20 21  2  0
 21 22  1  0
 21  3  1  0
 18  7  2  0
 15  9  1  0
  1 23  1  0
  1 24  1  0
  1 25  1  0
  2 26  1  0
  2 27  1  0
  4 28  1  0
  5 29  1  0
 10 30  1  0
 11 31  1  0
 12 32  1  0
 14 33  1  0
 19 34  1  0
 20 35  1  0
 22 36  1  0
 22 37  1  0
 22 38  1  0
M  END
>  <meeko>  (8) 
{"is_sidechain": [false], "free_energy": -7.119, "intermolecular_energy": -8.176, "internal_energy": -0.462}

$$$$
cand_042_out
     RDKit          3D

 38 40  0  0  0  0  0  0  0  0999 V2000
  179.4530   20.3320   46.1970 C   0  0  0  0  0  0  0  0  0  0  0  0
  178.0150   19.8360   46.1810 C   0  0  0  0  0  0  0  0  0  0  0  0
  177.1310   20.6310   47.1160 C   0  0  0  0  0  0  0  0  0  0  0  0
  177.4840   21.9600   47.4000 C   0  0  0  0  0  0  0  0  0  0  0  0
  176.7140   22.7410   48.2640 C   0  0  0  0  0  0  0  0  0  0  0  0
  175.5640   22.2200   48.8630 C   0  0  0  0  0  0  0  0  0  0  0  0
  174.7430   23.0160   49.8000 C   0  0  0  0  0  0  0  0  0  0  0  0
  173.7350   23.7300   49.1630 O   0  0  0  0  0  0  0  0  0  0  0  0
  172.8990   24.5130   49.9150 C   0  0  0  0  0  0  0  0  0  0  0  0
  171.8920   25.2000   49.2360 C   0  0  0  0  0  0  0  0  0  0  0  0
  171.0060   26.0160   49.9430 C   0  0  0  0  0  0  0  0  0  0  0  0
  171.1260   26.1450   51.3290 C   0  0  0  0  0  0  0  0  0  0  0  0
  172.1310   25.4560   52.0040 C   0  0  0  0  0  0  0  0  0  0  0  0
  172.1920   25.6280   53.3600 O   0  0  0  0  0  0  0  0  0  0  0  0
  173.0170   24.6390   51.2960 C   0  0  0  0  0  0  0  0  0  0  0  0
  174.0870   23.9000   51.9670 C   0  0  0  0  0  0  0  0  0  0  0  0
  174.2610   23.9670   53.1820 O   0  0  0  0  0  0  0  0  0  0  0  0
  174.9670   23.0570   51.1270 C   0  0  0  0  0  0  0  0  0  0  0  0
  175.9820   22.3720   51.7700 O   0  0  0  0  0  0  0  0  0  0  0  0
  175.2190   20.8860   48.5910 C   0  0  0  0  0  0  0  0  0  0  0  0
  175.9880   20.0820   47.7300 C   0  0  0  0  0  0  0  0  0  0  0  0
  175.5470   18.6680   47.4710 C   0  0  0  0  0  0  0  0  0  0  0  0
  179.7893   20.4480   47.2379 H   0  0  0  0  0  0  0  0  0  0  0  0
  180.0976   19.6043   45.6823 H   0  0  0  0  0  0  0  0  0  0  0  0
  179.5119   21.3024   45.6823 H   0  0  0  0  0  0  0  0  0  0  0  0
  177.6202   19.9244   45.1581 H   0  0  0  0  0  0  0  0  0  0  0  0
  178.0128   18.7893   46.5193 H   0  0  0  0  0  0  0  0  0  0  0  0
  178.3816   22.3928   46.9343 H   0  0  0  0  0  0  0  0  0  0  0  0
  177.0158   23.7774   48.4754 H   0  0  0  0  0  0  0  0  0  0  0  0
  171.7960   25.0990   48.1449 H   0  0  0  0  0  0  0  0  0  0  0  0
  170.2124   26.5580   49.4077 H   0  0  0  0  0  0  0  0  0  0  0  0
  170.4289   26.7887   51.8855 H   0  0  0  0  0  0  0  0  0  0  0  0
  171.6650   26.2820   53.7740 H   0  0  0  0  0  0  0  0  0  0  0  0
  176.8420   22.3530   51.4010 H   0  0  0  0  0  0  0  0  0  0  0  0
  174.3229   20.4581   49.0642 H   0  0  0  0  0  0  0  0  0  0  0  0
  175.3863   18.1527   48.4294 H   0  0  0  0  0  0  0  0  0  0  0  0
  174.6086   18.6759   46.8970 H   0  0  0  0  0  0  0  0  0  0  0  0
  176.3235   18.1410   46.8970 H   0  0  0  0  0  0  0  0  0  0  0  0
  1  2  1  0
  2  3  1  0
  3  4  2  0
  4  5  1  0
  5  6  2  0
  6  7  1  0
  7  8  1  0
  8  9  1  0
  9 10  2  0
 10 11  1  0
 11 12  2  0
 12 13  1  0
 13 14  1  0
 13 15  2  0
 15 16  1  0
 16 17  2  0
 16 18  1  0
 18 19  1  0
  6 20  1  0
 20 21  2  0
 21 22  1  0
 21  3  1  0
 18  7  2  0
 15  9  1  0
  1 23  1  0
  1 24  1  0
  1 25  1  0
  2 26  1  0
  2 27  1  0
  4 28  1  0
  5 29  1  0
 10 30  1  0
 11 31  1  0
 12 32  1  0
 14 33  1  0
 19 34  1  0
 20 35  1  0
 22 36  1  0
 22 37  1  0
 22 38  1  0
M  END
>  <meeko>  (9) 
{"is_sidechain": [false], "free_energy": -6.941, "intermolecular_energy": -7.966, "internal_energy": -0.463}

$$$$
