cand_001_out
     RDKit          3D

 45 48  0  0  0  0  0  0  0  0999 V2000
  176.2680   18.1660   46.3080 C   0  0  0  0  0  0  0  0  0  0  0  0
  176.2010   19.2960   47.2990 C   0  0  0  0  0  0  0  0  0  0  0  0
  175.4460   19.1210   48.4680 C   0  0  0  0  0  0  0  0  0  0  0  0
  175.3740   20.1270   49.4360 C   0  0  0  0  0  0  0  0  0  0  0  0
  176.0650   21.3300   49.2680 C   0  0  0  0  0  0  0  0  0  0  0  0
  175.9660   22.3880   50.2960 C   0  0  0  0  0  0  0  0  0  0  0  0
  175.3990   23.5610   49.8100 O   0  0  0  0  0  0  0  0  0  0  0  0
  175.2470   24.6260   50.6620 C   0  0  0  0  0  0  0  0  0  0  0  0
  174.6870   25.7880   50.1300 C   0  0  0  0  0  0  0  0  0  0  0  0
  174.5020   26.9070   50.9430 C   0  0  0  0  0  0  0  0  0  0  0  0
  174.8770   26.8660   52.2880 C   0  0  0  0  0  0  0  0  0  0  0  0
  175.4350   25.7050   52.8170 C   0  0  0  0  0  0  0  0  0  0  0  0
  175.7780   25.7320   54.1400 O   0  0  0  0  0  0  0  0  0  0  0  0
  175.6200   24.5840   52.0020 C   0  0  0  0  0  0  0  0  0  0  0  0
  176.2030   23.3450   52.5180 C   0  0  0  0  0  0  0  0  0  0  0  0
  176.5500   23.2270   53.6910 O   0  0  0  0  0  0  0  0  0  0  0  0
  176.3630   22.2180   51.5700 C   0  0  0  0  0  0  0  0  0  0  0  0
  176.9030   21.0470   52.0710 O   0  0  0  0  0  0  0  0  0  0  0  0
  176.8160   21.5080   48.0980 C   0  0  0  0  0  0  0  0  0  0  0  0
  176.9040   20.5040   47.1110 C   0  0  0  0  0  0  0  0  0  0  0  0
  177.7690   20.7670   45.8910 C   0  0  0  0  0  0  0  0  0  0  0  0
  179.2600   20.6780   46.1320 C   0  0  0  0  0  0  0  0  0  0  0  0
  180.0350   19.7520   45.4170 C   0  0  0  0  0  0  0  0  0  0  0  0
  181.4160   19.6780   45.6140 C   0  0  0  0  0  0  0  0  0  0  0  0
  182.0380   20.5320   46.5210 C   0  0  0  0  0  0  0  0  0  0  0  0
  181.2820   21.4650   47.2290 C   0  0  0  0  0  0  0  0  0  0  0  0
  179.9030   21.5410   47.0320 C   0  0  0  0  0  0  0  0  0  0  0  0
  176.3248   17.2087   46.8468 H   0  0  0  0  0  0  0  0  0  0  0  0
  175.3675   18.1784   45.6763 H   0  0  0  0  0  0  0  0  0  0  0  0
  177.1607   18.2847   45.6763 H   0  0  0  0  0  0  0  0  0  0  0  0
  174.9023   18.1778   48.6255 H   0  0  0  0  0  0  0  0  0  0  0  0
  174.7668   19.9700   50.3397 H   0  0  0  0  0  0  0  0  0  0  0  0
  174.3917   25.8220   49.0709 H   0  0  0  0  0  0  0  0  0  0  0  0
  174.0601   27.8230   50.5240 H   0  0  0  0  0  0  0  0  0  0  0  0
  174.7318   27.7489   52.9279 H   0  0  0  0  0  0  0  0  0  0  0  0
  175.1950   26.1110   54.7680 H   0  0  0  0  0  0  0  0  0  0  0  0
  177.4480   20.5120   51.5290 H   0  0  0  0  0  0  0  0  0  0  0  0
  177.3515   22.4567   47.9452 H   0  0  0  0  0  0  0  0  0  0  0  0
  177.5036   20.0294   45.1193 H   0  0  0  0  0  0  0  0  0  0  0  0
  177.5681   21.8059   45.5904 H   0  0  0  0  0  0  0  0  0  0  0  0
  179.5506   19.0783   44.6948 H   0  0  0  0  0  0  0  0  0  0  0  0
  182.0127   18.9444   45.0521 H   0  0  0  0  0  0  0  0  0  0  0  0
  183.1249   20.4705   46.6787 H   0  0  0  0  0  0  0  0  0  0  0  0
  181.7732   22.1418   47.9436 H   0  0  0  0  0  0  0  0  0  0  0  0
  179.3138   22.2852   47.5880 H   0  0  0  0  0  0  0  0  0  0  0  0
  1  2  1  0
  2  3  2  0
  3  4  1  0
  4  5  2  0
  5  6  1  0
  6  7  1  0
  7  8  1  0
  8  9  2  0
  9 10  1  0
 10 11  2  0
 11 12  1  0
 12 13  1  0
 12 14  2  0
 14 15  1  0
 15 16  2  0
 15 17  1  0
 17 18  1  0
  5 19  1  0
 19 20  2  0
 20 21  1  0
 21 22  1  0
 22 23  2  0
 23 24  1  0
 24 25  2  0
 25 26  1  0
 26 27  2  0
 20  2  1  0
 27 22  1  0
 17  6  2  0
 14  8  1  0
  1 28  1  0
  1 29  1  0
  1 30  1  0
  3 31  1  0
  4 32  1  0
  9 33  1  0
 10 34  1  0
 11 35  1  0
 13 36  1  0
 18 37  1  0
 19 38  1  0
 21 39  1  0
 21 40  1  0
 23 41  1  0
 24 42  1  0
 25 43  1  0
 26 44  1  0
 27 45  1  0
M  END
>  <meeko>  (1) 
{"is_sidechain": [false], "free_energy": -8.782, "intermolecular_energy": -10.836, "internal_energy": -0.663}

$$$$
cand_001_out
     RDKit          3D

 45 48  0  0  0  0  0  0  0  0999 V2000
  180.7550   21.3810   49.9770 C   0  0  0  0  0  0  0  0  0  0  0  0
  179.3740   21.9670   49.8630 C   0  0  0  0  0  0  0  0  0  0  0  0
  178.5740   22.0310   51.0150 C   0  0  0  0  0  0  0  0  0  0  0  0
  177.2960   22.5930   50.9730 C   0  0  0  0  0  0  0  0  0  0  0  0
  176.7850   23.1180   49.7810 C   0  0  0  0  0  0  0  0  0  0  0  0
  175.4250   23.6950   49.7530 C   0  0  0  0  0  0  0  0  0  0  0  0
  175.4140   25.0640   50.0000 O   0  0  0  0  0  0  0  0  0  0  0  0
  174.2130   25.7270   50.0030 C   0  0  0  0  0  0  0  0  0  0  0  0
  174.2470   27.0970   50.2710 C   0  0  0  0  0  0  0  0  0  0  0  0
  173.0610   27.8320   50.2860 C   0  0  0  0  0  0  0  0  0  0  0  0
  171.8420   27.2000   50.0340 C   0  0  0  0  0  0  0  0  0  0  0  0
  171.8110   25.8340   49.7670 C   0  0  0  0  0  0  0  0  0  0  0  0
  170.5830   25.2800   49.5280 O   0  0  0  0  0  0  0  0  0  0  0  0
  172.9990   25.0980   49.7520 C   0  0  0  0  0  0  0  0  0  0  0  0
  173.0100   23.6610   49.4750 C   0  0  0  0  0  0  0  0  0  0  0  0
  171.9800   23.0350   49.2370 O   0  0  0  0  0  0  0  0  0  0  0  0
  174.3220   22.9720   49.4910 C   0  0  0  0  0  0  0  0  0  0  0  0
  174.3220   21.6160   49.2150 O   0  0  0  0  0  0  0  0  0  0  0  0
  177.5810   23.0490   48.6300 C   0  0  0  0  0  0  0  0  0  0  0  0
  178.8760   22.4900   48.6530 C   0  0  0  0  0  0  0  0  0  0  0  0
  179.6830   22.4890   47.3670 C   0  0  0  0  0  0  0  0  0  0  0  0
  179.8570   21.1310   46.7210 C   0  0  0  0  0  0  0  0  0  0  0  0
  181.0890   20.7750   46.1510 C   0  0  0  0  0  0  0  0  0  0  0  0
  181.2680   19.5160   45.5740 C   0  0  0  0  0  0  0  0  0  0  0  0
  180.2230   18.5960   45.5670 C   0  0  0  0  0  0  0  0  0  0  0  0
  178.9980   18.9320   46.1400 C   0  0  0  0  0  0  0  0  0  0  0  0
  178.8170   20.1900   46.7180 C   0  0  0  0  0  0  0  0  0  0  0  0
  181.0192   21.2689   51.0389 H   0  0  0  0  0  0  0  0  0  0  0  0
  180.7769   20.3960   49.4877 H   0  0  0  0  0  0  0  0  0  0  0  0
  181.4786   22.0496   49.4877 H   0  0  0  0  0  0  0  0  0  0  0  0
  178.9595   21.6325   51.9650 H   0  0  0  0  0  0  0  0  0  0  0  0
  176.6846   22.6232   51.8870 H   0  0  0  0  0  0  0  0  0  0  0  0
  175.2070   27.5959   50.4699 H   0  0  0  0  0  0  0  0  0  0  0  0
  173.0866   28.9113   50.4968 H   0  0  0  0  0  0  0  0  0  0  0  0
  170.9076   27.7803   50.0464 H   0  0  0  0  0  0  0  0  0  0  0  0
  170.4100   24.3960   49.7870 H   0  0  0  0  0  0  0  0  0  0  0  0
  173.5220   21.1820   48.9950 H   0  0  0  0  0  0  0  0  0  0  0  0
  177.1850   23.4417   47.6819 H   0  0  0  0  0  0  0  0  0  0  0  0
  179.1764   23.1473   46.6459 H   0  0  0  0  0  0  0  0  0  0  0  0
  180.6925   22.8319   47.6377 H   0  0  0  0  0  0  0  0  0  0  0  0
  181.9213   21.4942   46.1588 H   0  0  0  0  0  0  0  0  0  0  0  0
  182.2362   19.2507   45.1243 H   0  0  0  0  0  0  0  0  0  0  0  0
  180.3642   17.6055   45.1099 H   0  0  0  0  0  0  0  0  0  0  0  0
  178.1724   18.2051   46.1369 H   0  0  0  0  0  0  0  0  0  0  0  0
  177.8497   20.4455   47.1753 H   0  0  0  0  0  0  0  0  0  0  0  0
  1  2  1  0
  2  3  2  0
  3  4  1  0
  4  5  2  0
  5  6  1  0
  6  7  1  0
  7  8  1  0
  8  9  2  0
  9 10  1  0
 10 11  2  0
 11 12  1  0
 12 13  1  0
 12 14  2  0
 14 15  1  0
 15 16  2  0
 15 17  1  0
 17 18  1  0
  5 19  1  0
 19 20  2  0
 20 21  1  0
 21 22  1  0
 22 23  2  0
 23 24  1  0
 24 25  2  0
 25 26  1  0
 26 27  2  0
 20  2  1  0
 27 22  1  0
 17  6  2  0
 14  8  1  0
  1 28  1  0
  1 29  1  0
  1 30  1  0
  3 31  1  0
  4 32  1  0
  9 33  1  0
 10 34  1  0
 11 35  1  0
 13 36  1  0
 18 37  1  0
 19 38  1  0
 21 39  1  0
 21 40  1  0
 23 41  1  0
 24 42  1  0
 25 43  1  0
 26 44  1  0
 27 45  1  0
M  END
>  <meeko>  (2) 
{"is_sidechain": [false], "free_energy": -8.566, "intermolecular_energy": -10.276, "internal_energy": -0.957}

$$$$
cand_001_out
     RDKit          3D

 45 48  0  0  0  0  0  0  0  0999 V2000
  177.0550   18.8360   46.3840 C   0  0  0  0  0  0  0  0  0  0  0  0
  176.7270   19.7850   47.5040 C   0  0  0  0  0  0  0  0  0  0  0  0
  175.7760   19.3950   48.4600 C   0  0  0  0  0  0  0  0  0  0  0  0
  175.4560   20.2240   49.5380 C   0  0  0  0  0  0  0  0  0  0  0  0
  176.0860   21.4620   49.6980 C   0  0  0  0  0  0  0  0  0  0  0  0
  175.7240   22.3330   50.8370 C   0  0  0  0  0  0  0  0  0  0  0  0
  174.4990   22.9680   50.6620 O   0  0  0  0  0  0  0  0  0  0  0  0
  174.0420   23.8060   51.6470 C   0  0  0  0  0  0  0  0  0  0  0  0
  172.8160   24.4350   51.4250 C   0  0  0  0  0  0  0  0  0  0  0  0
  172.2920   25.2980   52.3880 C   0  0  0  0  0  0  0  0  0  0  0  0
  172.9920   25.5350   53.5720 C   0  0  0  0  0  0  0  0  0  0  0  0
  174.2160   24.9070   53.7920 C   0  0  0  0  0  0  0  0  0  0  0  0
  174.8480   25.1820   54.9730 O   0  0  0  0  0  0  0  0  0  0  0  0
  174.7400   24.0420   52.8270 C   0  0  0  0  0  0  0  0  0  0  0  0
  176.0220   23.3620   53.0190 C   0  0  0  0  0  0  0  0  0  0  0  0
  176.6940   23.5120   54.0360 O   0  0  0  0  0  0  0  0  0  0  0  0
  176.4930   22.4720   51.9320 C   0  0  0  0  0  0  0  0  0  0  0  0
  177.6990   21.8240   52.1290 O   0  0  0  0  0  0  0  0  0  0  0  0
  177.0320   21.8560   48.7410 C   0  0  0  0  0  0  0  0  0  0  0  0
  177.3720   21.0310   47.6480 C   0  0  0  0  0  0  0  0  0  0  0  0
  178.4330   21.5200   46.6790 C   0  0  0  0  0  0  0  0  0  0  0  0
  179.8510   21.4710   47.2050 C   0  0  0  0  0  0  0  0  0  0  0  0
  180.4940   22.6520   47.6080 C   0  0  0  0  0  0  0  0  0  0  0  0
  181.7940   22.6150   48.1170 C   0  0  0  0  0  0  0  0  0  0  0  0
  182.4630   21.4000   48.2360 C   0  0  0  0  0  0  0  0  0  0  0  0
  181.8320   20.2190   47.8510 C   0  0  0  0  0  0  0  0  0  0  0  0
  180.5330   20.2530   47.3430 C   0  0  0  0  0  0  0  0  0  0  0  0
  177.3872   17.8748   46.8033 H   0  0  0  0  0  0  0  0  0  0  0  0
  176.1599   18.6762   45.7648 H   0  0  0  0  0  0  0  0  0  0  0  0
  177.8577   19.2630   45.7648 H   0  0  0  0  0  0  0  0  0  0  0  0
  175.2747   18.4211   48.3587 H   0  0  0  0  0  0  0  0  0  0  0  0
  174.7005   19.8994   50.2686 H   0  0  0  0  0  0  0  0  0  0  0  0
  172.2635   24.2506   50.4919 H   0  0  0  0  0  0  0  0  0  0  0  0
  171.3251   25.7927   52.2137 H   0  0  0  0  0  0  0  0  0  0  0  0
  172.5781   26.2163   54.3300 H   0  0  0  0  0  0  0  0  0  0  0  0
  174.9740   24.5040   55.6060 H   0  0  0  0  0  0  0  0  0  0  0  0
  178.0640   21.2940   51.4470 H   0  0  0  0  0  0  0  0  0  0  0  0
  177.5225   22.8351   48.8452 H   0  0  0  0  0  0  0  0  0  0  0  0
  178.3828   20.8959   45.7746 H   0  0  0  0  0  0  0  0  0  0  0  0
  178.2116   22.5809   46.4905 H   0  0  0  0  0  0  0  0  0  0  0  0
  179.9693   23.6150   47.5221 H   0  0  0  0  0  0  0  0  0  0  0  0
  182.2901   23.5474   48.4244 H   0  0  0  0  0  0  0  0  0  0  0  0
  183.4883   21.3724   48.6334 H   0  0  0  0  0  0  0  0  0  0  0  0
  182.3588   19.2582   47.9477 H   0  0  0  0  0  0  0  0  0  0  0  0
  180.0389   19.3156   47.0478 H   0  0  0  0  0  0  0  0  0  0  0  0
  1  2  1  0
  2  3  2  0
  3  4  1  0
  4  5  2  0
  5  6  1  0
  6  7  1  0
  7  8  1  0
  8  9  2  0
  9 10  1  0
 10 11  2  0
 11 12  1  0
 12 13  1  0
 12 14  2  0
 14 15  1  0
 15 16  2  0
 15 17  1  0
 17 18  1  0
  5 19  1  0
 19 20  2  0
 20 21  1  0
 21 22  1  0
 22 23  2  0
 23 24  1  0
 24 25  2  0
 25 26  1  0
 26 27  2  0
 20  2  1  0
 27 22  1  0
 17  6  2  0
 14  8  1  0
  1 28  1  0
  1 29  1  0
  1 30  1  0
  3 31  1  0
  4 32  1  0
  9 33  1  0
 10 34  1  0
 11 35  1  0
 13 36  1  0
 18 37  1  0
 19 38  1  0
 21 39  1  0
 21 40  1  0
 23 41  1  0
 24 42  1  0
 25 43  1  0
 26 44  1  0
 27 45  1  0
M  END
>  <meeko>  (3) 
{"is_sidechain": [false], "free_energy": -8.52, "intermolecular_energy": -10.088, "internal_energy": -1.088}

$$$$
cand_001_out
     RDKit          3D

 45 48  0  0  0  0  0  0  0  0999 V2000
  177.1220   20.4780   45.9000 C   0  0  0  0  0  0  0  0  0  0  0  0
  176.4080   21.1330   47.0500 C   0  0  0  0  0  0  0  0  0  0  0  0
  175.1920   20.5840   47.4860 C   0  0  0  0  0  0  0  0  0  0  0  0
  174.5020   21.1340   48.5700 C   0  0  0  0  0  0  0  0  0  0  0  0
  175.0140   22.2390   49.2560 C   0  0  0  0  0  0  0  0  0  0  0  0
  174.2630   22.8150   50.3910 C   0  0  0  0  0  0  0  0  0  0  0  0
  175.0710   23.0910   51.4890 O   0  0  0  0  0  0  0  0  0  0  0  0
  174.5000   23.6310   52.6140 C   0  0  0  0  0  0  0  0  0  0  0  0
  175.3440   23.8780   53.6970 C   0  0  0  0  0  0  0  0  0  0  0  0
  174.8280   24.4290   54.8710 C   0  0  0  0  0  0  0  0  0  0  0  0
  173.4680   24.7320   54.9630 C   0  0  0  0  0  0  0  0  0  0  0  0
  172.6270   24.4850   53.8810 C   0  0  0  0  0  0  0  0  0  0  0  0
  171.3070   24.8060   54.0380 O   0  0  0  0  0  0  0  0  0  0  0  0
  173.1450   23.9330   52.7050 C   0  0  0  0  0  0  0  0  0  0  0  0
  172.2960   23.6580   51.5450 C   0  0  0  0  0  0  0  0  0  0  0  0
  171.0920   23.9040   51.5460 O   0  0  0  0  0  0  0  0  0  0  0  0
  172.9420   23.0650   50.3510 C   0  0  0  0  0  0  0  0  0  0  0  0
  172.1330   22.8210   49.2550 O   0  0  0  0  0  0  0  0  0  0  0  0
  176.2260   22.7910   48.8180 C   0  0  0  0  0  0  0  0  0  0  0  0
  176.9400   22.2480   47.7290 C   0  0  0  0  0  0  0  0  0  0  0  0
  178.2620   22.8860   47.3450 C   0  0  0  0  0  0  0  0  0  0  0  0
  179.4930   22.1410   47.8140 C   0  0  0  0  0  0  0  0  0  0  0  0
  179.8010   22.0800   49.1820 C   0  0  0  0  0  0  0  0  0  0  0  0
  180.9210   21.3750   49.6280 C   0  0  0  0  0  0  0  0  0  0  0  0
  181.7410   20.7170   48.7140 C   0  0  0  0  0  0  0  0  0  0  0  0
  181.4400   20.7590   47.3550 C   0  0  0  0  0  0  0  0  0  0  0  0
  180.3200   21.4620   46.9070 C   0  0  0  0  0  0  0  0  0  0  0  0
  177.8805   19.7821   46.2878 H   0  0  0  0  0  0  0  0  0  0  0  0
  176.3967   19.9245   45.2855 H   0  0  0  0  0  0  0  0  0  0  0  0
  177.6110   21.2482   45.2855 H   0  0  0  0  0  0  0  0  0  0  0  0
  174.7759   19.7080   46.9669 H   0  0  0  0  0  0  0  0  0  0  0  0
  173.5456   20.6924   48.8867 H   0  0  0  0  0  0  0  0  0  0  0  0
  176.4153   23.6387   53.6258 H   0  0  0  0  0  0  0  0  0  0  0  0
  175.4934   24.6248   55.7247 H   0  0  0  0  0  0  0  0  0  0  0  0
  173.0616   25.1652   55.8889 H   0  0  0  0  0  0  0  0  0  0  0  0
  170.7830   25.0110   53.2900 H   0  0  0  0  0  0  0  0  0  0  0  0
  171.5070   22.1250   49.2810 H   0  0  0  0  0  0  0  0  0  0  0  0
  176.6314   23.6717   49.3377 H   0  0  0  0  0  0  0  0  0  0  0  0
  178.3019   22.9540   46.2478 H   0  0  0  0  0  0  0  0  0  0  0  0
  178.2869   23.8654   47.8451 H   0  0  0  0  0  0  0  0  0  0  0  0
  179.1542   22.5922   49.9095 H   0  0  0  0  0  0  0  0  0  0  0  0
  181.1559   21.3392   50.7020 H   0  0  0  0  0  0  0  0  0  0  0  0
  182.6252   20.1649   49.0654 H   0  0  0  0  0  0  0  0  0  0  0  0
  182.0858   20.2374   46.6332 H   0  0  0  0  0  0  0  0  0  0  0  0
  180.0839   21.4836   45.8328 H   0  0  0  0  0  0  0  0  0  0  0  0
  1  2  1  0
  2  3  2  0
  3  4  1  0
  4  5  2  0
  5  6  1  0
  6  7  1  0
  7  8  1  0
  8  9  2  0
  9 10  1  0
 10 11  2  0
 11 12  1  0
 12 13  1  0
 12 14  2  0
 14 15  1  0
 15 16  2  0
 15 17  1  0
 17 18  1  0
  5 19  1  0
 19 20  2  0
 20 21  1  0
 21 22  1  0
 22 23  2  0
 23 24  1  0
 24 25  2  0
 25 26  1  0
 26 27  2  0
 20  2  1  0
 27 22  1  0
 17  6  2  0
 14  8  1  0
  1 28  1  0
  1 29  1  0
  1 30  1  0
  3 31  1  0
  4 32  1  0
  9 33  1  0
 10 34  1  0
 11 35  1  0
 13 36  1  0
 18 37  1  0
 19 38  1  0
 21 39  1  0
 21 40  1  0
 23 41  1  0
 24 42  1  0
 25 43  1  0
 26 44  1  0
 27 45  1  0
M  END
>  <meeko>  (4) 
{"is_sidechain": [false], "free_energy": -8.188, "intermolecular_energy": -10.19, "internal_energy": -0.576}

$$$$
cand_001_out
     RDKit          3D

 45 48  0  0  0  0  0  0  0  0999 V2000
  177.2820   19.8280   46.1820 C   0  0  0  0  0  0  0  0  0  0  0  0
  178.5420   20.4330   46.7390 C   0  0  0  0  0  0  0  0  0  0  0  0
  179.7360   19.7030   46.6480 C   0  0  0  0  0  0  0  0  0  0  0  0
  180.9410   20.2300   47.1210 C   0  0  0  0  0  0  0  0  0  0  0  0
  180.9870   21.5080   47.6870 C   0  0  0  0  0  0  0  0  0  0  0  0
  182.2680   22.0440   48.1950 C   0  0  0  0  0  0  0  0  0  0  0  0
  182.9420   22.8130   47.2530 O   0  0  0  0  0  0  0  0  0  0  0  0
  184.1480   23.3730   47.5940 C   0  0  0  0  0  0  0  0  0  0  0  0
  184.7980   24.1250   46.6150 C   0  0  0  0  0  0  0  0  0  0  0  0
  186.0260   24.7230   46.8980 C   0  0  0  0  0  0  0  0  0  0  0  0
  186.6060   24.5710   48.1590 C   0  0  0  0  0  0  0  0  0  0  0  0
  185.9560   23.8200   49.1350 C   0  0  0  0  0  0  0  0  0  0  0  0
  186.5780   23.7120   50.3480 O   0  0  0  0  0  0  0  0  0  0  0  0
  184.7250   23.2210   48.8510 C   0  0  0  0  0  0  0  0  0  0  0  0
  184.0090   22.4240   49.8480 C   0  0  0  0  0  0  0  0  0  0  0  0
  184.4490   22.2500   50.9820 O   0  0  0  0  0  0  0  0  0  0  0  0
  182.7150   21.8250   49.4440 C   0  0  0  0  0  0  0  0  0  0  0  0
  182.0400   21.0850   50.3990 O   0  0  0  0  0  0  0  0  0  0  0  0
  179.7940   22.2370   47.7830 C   0  0  0  0  0  0  0  0  0  0  0  0
  178.5690   21.7240   47.3070 C   0  0  0  0  0  0  0  0  0  0  0  0
  177.3310   22.5960   47.4180 C   0  0  0  0  0  0  0  0  0  0  0  0
  176.8090   22.7890   48.8260 C   0  0  0  0  0  0  0  0  0  0  0  0
  176.9320   21.7580   49.7700 C   0  0  0  0  0  0  0  0  0  0  0  0
  176.4750   21.9350   51.0780 C   0  0  0  0  0  0  0  0  0  0  0  0
  175.8990   23.1440   51.4600 C   0  0  0  0  0  0  0  0  0  0  0  0
  175.7830   24.1800   50.5350 C   0  0  0  0  0  0  0  0  0  0  0  0
  176.2400   24.0070   49.2280 C   0  0  0  0  0  0  0  0  0  0  0  0
  176.6289   19.5144   47.0097 H   0  0  0  0  0  0  0  0  0  0  0  0
  176.7592   20.5733   45.5646 H   0  0  0  0  0  0  0  0  0  0  0  0
  177.5367   18.9540   45.5646 H   0  0  0  0  0  0  0  0  0  0  0  0
  179.7239   18.6997   46.1972 H   0  0  0  0  0  0  0  0  0  0  0  0
  181.8623   19.6336   47.0473 H   0  0  0  0  0  0  0  0  0  0  0  0
  184.3426   24.2462   45.6211 H   0  0  0  0  0  0  0  0  0  0  0  0
  186.5386   25.3157   46.1260 H   0  0  0  0  0  0  0  0  0  0  0  0
  187.5743   25.0435   48.3809 H   0  0  0  0  0  0  0  0  0  0  0  0
  186.2970   23.0640   50.9630 H   0  0  0  0  0  0  0  0  0  0  0  0
  182.2810   20.1930   50.5570 H   0  0  0  0  0  0  0  0  0  0  0  0
  179.8132   23.2365   48.2420 H   0  0  0  0  0  0  0  0  0  0  0  0
  177.5729   23.5864   47.0049 H   0  0  0  0  0  0  0  0  0  0  0  0
  176.5366   22.0743   46.8642 H   0  0  0  0  0  0  0  0  0  0  0  0
  177.3921   20.8026   49.4775 H   0  0  0  0  0  0  0  0  0  0  0  0
  176.5703   21.1176   51.8079 H   0  0  0  0  0  0  0  0  0  0  0  0
  175.5364   23.2810   52.4894 H   0  0  0  0  0  0  0  0  0  0  0  0
  175.3302   25.1362   50.8359 H   0  0  0  0  0  0  0  0  0  0  0  0
  176.1534   24.8327   48.5064 H   0  0  0  0  0  0  0  0  0  0  0  0
  1  2  1  0
  2  3  2  0
  3  4  1  0
  4  5  2  0
  5  6  1  0
  6  7  1  0
  7  8  1  0
  8  9  2  0
  9 10  1  0
 10 11  2  0
 11 12  1  0
 12 13  1  0
 12 14  2  0
 14 15  1  0
 15 16  2  0
 15 17  1  0
 17 18  1  0
  5 19  1  0
 19 20  2  0
 20 21  1  0
 21 22  1  0
 22 23  2  0
 23 24  1  0
 24 25  2  0
 25 26  1  0
 26 27  2  0
 20  2  1  0
 27 22  1  0
 17  6  2  0
 14  8  1  0
  1 28  1  0
  1 29  1  0
  1 30  1  0
  3 31  1  0
  4 32  1  0
  9 33  1  0
 10 34  1  0
 11 35  1  0
 13 36  1  0
 18 37  1  0
 19 38  1  0
 21 39  1  0
 21 40  1  0
 23 41  1  0
 24 42  1  0
 25 43  1  0
 26 44  1  0
 27 45  1  0
M  END
>  <meeko>  (5) 
{"is_sidechain": [false], "free_energy": -8.075, "intermolecular_energy": -9.583, "internal_energy": -1.043}

$$$$
cand_001_out
     RDKit          3D

 45 48  0  0  0  0  0  0  0  0999 V2000
  175.2760   23.7240   53.0720 C   0  0  0  0  0  0  0  0  0  0  0  0
  176.3040   23.3930   52.0250 C   0  0  0  0  0  0  0  0  0  0  0  0
  177.1110   22.2600   52.2100 C   0  0  0  0  0  0  0  0  0  0  0  0
  178.0610   21.8890   51.2540 C   0  0  0  0  0  0  0  0  0  0  0  0
  178.2220   22.6330   50.0810 C   0  0  0  0  0  0  0  0  0  0  0  0
  179.2410   22.2320   49.0880 C   0  0  0  0  0  0  0  0  0  0  0  0
  178.8360   21.1600   48.3010 O   0  0  0  0  0  0  0  0  0  0  0  0
  179.6890   20.6870   47.3360 C   0  0  0  0  0  0  0  0  0  0  0  0
  179.2490   19.6000   46.5790 C   0  0  0  0  0  0  0  0  0  0  0  0
  180.0670   19.0710   45.5800 C   0  0  0  0  0  0  0  0  0  0  0  0
  181.3240   19.6270   45.3370 C   0  0  0  0  0  0  0  0  0  0  0  0
  181.7620   20.7110   46.0930 C   0  0  0  0  0  0  0  0  0  0  0  0
  183.0030   21.2070   45.8020 O   0  0  0  0  0  0  0  0  0  0  0  0
  180.9420   21.2410   47.0940 C   0  0  0  0  0  0  0  0  0  0  0  0
  181.3630   22.3790   47.9120 C   0  0  0  0  0  0  0  0  0  0  0  0
  182.4510   22.9280   47.7540 O   0  0  0  0  0  0  0  0  0  0  0  0
  180.4230   22.8590   48.9520 C   0  0  0  0  0  0  0  0  0  0  0  0
  180.8260   23.9450   49.7100 O   0  0  0  0  0  0  0  0  0  0  0  0
  177.4200   23.7670   49.8980 C   0  0  0  0  0  0  0  0  0  0  0  0
  176.4530   24.1560   50.8490 C   0  0  0  0  0  0  0  0  0  0  0  0
  175.6020   25.3780   50.5520 C   0  0  0  0  0  0  0  0  0  0  0  0
  174.2040   25.0800   50.0580 C   0  0  0  0  0  0  0  0  0  0  0  0
  173.8720   23.7890   49.6180 C   0  0  0  0  0  0  0  0  0  0  0  0
  172.5780   23.4970   49.1820 C   0  0  0  0  0  0  0  0  0  0  0  0
  171.5990   24.4880   49.1870 C   0  0  0  0  0  0  0  0  0  0  0  0
  171.9110   25.7710   49.6320 C   0  0  0  0  0  0  0  0  0  0  0  0
  173.2040   26.0640   50.0700 C   0  0  0  0  0  0  0  0  0  0  0  0
  175.7125   23.5834   54.0718 H   0  0  0  0  0  0  0  0  0  0  0  0
  174.9571   24.7702   52.9549 H   0  0  0  0  0  0  0  0  0  0  0  0
  174.4066   23.0604   52.9549 H   0  0  0  0  0  0  0  0  0  0  0  0
  176.9943   21.6547   53.1210 H   0  0  0  0  0  0  0  0  0  0  0  0
  178.6887   21.0022   51.4263 H   0  0  0  0  0  0  0  0  0  0  0  0
  178.2586   19.1609   46.7697 H   0  0  0  0  0  0  0  0  0  0  0  0
  179.7207   18.2144   44.9830 H   0  0  0  0  0  0  0  0  0  0  0  0
  181.9679   19.2092   44.5491 H   0  0  0  0  0  0  0  0  0  0  0  0
  183.3170   21.9710   46.2430 H   0  0  0  0  0  0  0  0  0  0  0  0
  181.7380   24.1080   49.8470 H   0  0  0  0  0  0  0  0  0  0  0  0
  177.5477   24.3709   48.9875 H   0  0  0  0  0  0  0  0  0  0  0  0
  175.5184   25.9682   51.4765 H   0  0  0  0  0  0  0  0  0  0  0  0
  176.1084   25.9135   49.7354 H   0  0  0  0  0  0  0  0  0  0  0  0
  174.6384   23.0000   49.6167 H   0  0  0  0  0  0  0  0  0  0  0  0
  172.3314   22.4830   48.8341 H   0  0  0  0  0  0  0  0  0  0  0  0
  170.5808   24.2579   48.8400 H   0  0  0  0  0  0  0  0  0  0  0  0
  171.1381   26.5536   49.6382 H   0  0  0  0  0  0  0  0  0  0  0  0
  173.4410   27.0767   50.4281 H   0  0  0  0  0  0  0  0  0  0  0  0
  1  2  1  0
  2  3  2  0
  3  4  1  0
  4  5  2  0
  5  6  1  0
  6  7  1  0
  7  8  1  0
  8  9  2  0
  9 10  1  0
 10 11  2  0
 11 12  1  0
 12 13  1  0
 12 14  2  0
 14 15  1  0
 15 16  2  0
 15 17  1  0
 17 18  1  0
  5 19  1  0
 19 20  2  0
 20 21  1  0
 21 22  1  0
 22 23  2  0
 23 24  1  0
 24 25  2  0
 25 26  1  0
 26 27  2  0
 20  2  1  0
 27 22  1  0
 17  6  2  0
 14  8  1  0
  1 28  1  0
  1 29  1  0
  1 30  1  0
  3 31  1  0
  4 32  1  0
  9 33  1  0
 10 34  1  0
 11 35  1  0
 13 36  1  0
 18 37  1  0
 19 38  1  0
 21 39  1  0
 21 40  1  0
 23 41  1  0
 24 42  1  0
 25 43  1  0
 26 44  1  0
 27 45  1  0
M  END
>  <meeko>  (6) 
{"is_sidechain": [false], "free_energy": -8.067, "intermolecular_energy": -9.758, "internal_energy": -0.859}

$$$$
cand_001_out
     RDKit          3D

 45 48  0  0  0  0  0  0  0  0999 V2000
  175.4130   23.9080   53.1890 C   0  0  0  0  0  0  0  0  0  0  0  0
  176.1950   23.3650   52.0240 C   0  0  0  0  0  0  0  0  0  0  0  0
  176.8720   22.1450   52.1790 C   0  0  0  0  0  0  0  0  0  0  0  0
  177.5880   21.5800   51.1200 C   0  0  0  0  0  0  0  0  0  0  0  0
  177.6370   22.2130   49.8740 C   0  0  0  0  0  0  0  0  0  0  0  0
  178.4120   21.6070   48.7700 C   0  0  0  0  0  0  0  0  0  0  0  0
  179.6930   22.1370   48.6550 O   0  0  0  0  0  0  0  0  0  0  0  0
  180.5200   21.6620   47.6690 C   0  0  0  0  0  0  0  0  0  0  0  0
  181.7910   22.2320   47.5790 C   0  0  0  0  0  0  0  0  0  0  0  0
  182.6830   21.7930   46.6000 C   0  0  0  0  0  0  0  0  0  0  0  0
  182.3060   20.7860   45.7100 C   0  0  0  0  0  0  0  0  0  0  0  0
  181.0380   20.2180   45.8010 C   0  0  0  0  0  0  0  0  0  0  0  0
  180.7350   19.2360   44.8990 O   0  0  0  0  0  0  0  0  0  0  0  0
  180.1450   20.6580   46.7820 C   0  0  0  0  0  0  0  0  0  0  0  0
  178.8030   20.0880   46.9120 C   0  0  0  0  0  0  0  0  0  0  0  0
  178.4000   19.1940   46.1720 O   0  0  0  0  0  0  0  0  0  0  0  0
  177.9300   20.6310   47.9800 C   0  0  0  0  0  0  0  0  0  0  0  0
  176.6690   20.0760   48.1030 O   0  0  0  0  0  0  0  0  0  0  0  0
  176.9670   23.4330   49.7200 C   0  0  0  0  0  0  0  0  0  0  0  0
  176.2340   24.0170   50.7750 C   0  0  0  0  0  0  0  0  0  0  0  0
  175.5080   25.3240   50.5100 C   0  0  0  0  0  0  0  0  0  0  0  0
  174.0550   25.1790   50.1130 C   0  0  0  0  0  0  0  0  0  0  0  0
  173.1750   26.2630   50.2540 C   0  0  0  0  0  0  0  0  0  0  0  0
  171.8370   26.1470   49.8680 C   0  0  0  0  0  0  0  0  0  0  0  0
  171.3670   24.9530   49.3290 C   0  0  0  0  0  0  0  0  0  0  0  0
  172.2330   23.8730   49.1720 C   0  0  0  0  0  0  0  0  0  0  0  0
  173.5700   23.9860   49.5560 C   0  0  0  0  0  0  0  0  0  0  0  0
  175.8820   23.5823   54.1292 H   0  0  0  0  0  0  0  0  0  0  0  0
  175.4049   25.0071   53.1448 H   0  0  0  0  0  0  0  0  0  0  0  0
  174.3803   23.5316   53.1448 H   0  0  0  0  0  0  0  0  0  0  0  0
  176.8384   21.6260   53.1483 H   0  0  0  0  0  0  0  0  0  0  0  0
  178.1184   20.6278   51.2681 H   0  0  0  0  0  0  0  0  0  0  0  0
  182.0890   23.0264   48.2791 H   0  0  0  0  0  0  0  0  0  0  0  0
  183.6850   22.2413   46.5295 H   0  0  0  0  0  0  0  0  0  0  0  0
  183.0096   20.4416   44.9378 H   0  0  0  0  0  0  0  0  0  0  0  0
  181.4180   18.8220   44.4100 H   0  0  0  0  0  0  0  0  0  0  0  0
  176.0890   20.3740   48.7750 H   0  0  0  0  0  0  0  0  0  0  0  0
  177.0133   23.9502   48.7503 H   0  0  0  0  0  0  0  0  0  0  0  0
  175.5525   25.9310   51.4263 H   0  0  0  0  0  0  0  0  0  0  0  0
  176.0161   25.7897   49.6527 H   0  0  0  0  0  0  0  0  0  0  0  0
  173.5416   27.2122   50.6720 H   0  0  0  0  0  0  0  0  0  0  0  0
  171.1542   27.0007   49.9903 H   0  0  0  0  0  0  0  0  0  0  0  0
  170.3131   24.8621   49.0273 H   0  0  0  0  0  0  0  0  0  0  0  0
  171.8623   22.9296   48.7447 H   0  0  0  0  0  0  0  0  0  0  0  0
  174.2499   23.1319   49.4207 H   0  0  0  0  0  0  0  0  0  0  0  0
  1  2  1  0
  2  3  2  0
  3  4  1  0
  4  5  2  0
  5  6  1  0
  6  7  1  0
  7  8  1  0
  8  9  2  0
  9 10  1  0
 10 11  2  0
 11 12  1  0
 12 13  1  0
 12 14  2  0
 14 15  1  0
 15 16  2  0
 15 17  1  0
 17 18  1  0
  5 19  1  0
 19 20  2  0
 20 21  1  0
 21 22  1  0
 22 23  2  0
 23 24  1  0
 24 25  2  0
 25 26  1  0
 26 27  2  0
 20  2  1  0
 27 22  1  0
 17  6  2  0
 14  8  1  0
  1 28  1  0
  1 29  1  0
  1 30  1  0
  3 31  1  0
  4 32  1  0
  9 33  1  0
 10 34  1  0
 11 35  1  0
 13 36  1  0
 18 37  1  0
 19 38  1  0
 21 39  1  0
 21 40  1  0
 23 41  1  0
 24 42  1  0
 25 43  1  0
 26 44  1  0
 27 45  1  0
M  END
>  <meeko>  (7) 
{"is_sidechain": [false], "free_energy": -8.048, "intermolecular_energy": -9.643, "internal_energy": -0.951}

$$$$
cand_001_out
     RDKit          3D

 45 48  0  0  0  0  0  0  0  0999 V2000
  180.5040   18.7730   44.8300 C   0  0  0  0  0  0  0  0  0  0  0  0
  180.6500   19.8380   45.8820 C   0  0  0  0  0  0  0  0  0  0  0  0
  181.9270   20.0960   46.4050 C   0  0  0  0  0  0  0  0  0  0  0  0
  182.1250   21.0960   47.3620 C   0  0  0  0  0  0  0  0  0  0  0  0
  181.0540   21.8730   47.8130 C   0  0  0  0  0  0  0  0  0  0  0  0
  181.2800   22.9160   48.8360 C   0  0  0  0  0  0  0  0  0  0  0  0
  181.6720   24.1330   48.2890 O   0  0  0  0  0  0  0  0  0  0  0  0
  181.9150   25.1900   49.1290 C   0  0  0  0  0  0  0  0  0  0  0  0
  182.3210   26.3880   48.5390 C   0  0  0  0  0  0  0  0  0  0  0  0
  182.5820   27.5030   49.3370 C   0  0  0  0  0  0  0  0  0  0  0  0
  182.4390   27.4220   50.7230 C   0  0  0  0  0  0  0  0  0  0  0  0
  182.0350   26.2260   51.3100 C   0  0  0  0  0  0  0  0  0  0  0  0
  181.9140   26.2160   52.6720 O   0  0  0  0  0  0  0  0  0  0  0  0
  181.7730   25.1090   50.5100 C   0  0  0  0  0  0  0  0  0  0  0  0
  181.3450   23.8330   51.0870 C   0  0  0  0  0  0  0  0  0  0  0  0
  181.1900   23.6840   52.2960 O   0  0  0  0  0  0  0  0  0  0  0  0
  181.1010   22.7090   50.1530 C   0  0  0  0  0  0  0  0  0  0  0  0
  180.6850   21.5110   50.7070 O   0  0  0  0  0  0  0  0  0  0  0  0
  179.7780   21.6130   47.2960 C   0  0  0  0  0  0  0  0  0  0  0  0
  179.5590   20.6120   46.3260 C   0  0  0  0  0  0  0  0  0  0  0  0
  178.1500   20.4220   45.7940 C   0  0  0  0  0  0  0  0  0  0  0  0
  177.0610   20.4420   46.8440 C   0  0  0  0  0  0  0  0  0  0  0  0
  176.4090   21.6440   47.1610 C   0  0  0  0  0  0  0  0  0  0  0  0
  175.3860   21.6690   48.1110 C   0  0  0  0  0  0  0  0  0  0  0  0
  174.9970   20.4940   48.7500 C   0  0  0  0  0  0  0  0  0  0  0  0
  175.6270   19.2920   48.4360 C   0  0  0  0  0  0  0  0  0  0  0  0
  176.6490   19.2640   47.4860 C   0  0  0  0  0  0  0  0  0  0  0  0
  180.3699   17.7947   45.3148 H   0  0  0  0  0  0  0  0  0  0  0  0
  179.6278   18.9947   44.2029 H   0  0  0  0  0  0  0  0  0  0  0  0
  181.4075   18.7507   44.2029 H   0  0  0  0  0  0  0  0  0  0  0  0
  182.7850   19.5023   46.0566 H   0  0  0  0  0  0  0  0  0  0  0  0
  183.1335   21.2731   47.7640 H   0  0  0  0  0  0  0  0  0  0  0  0
  182.4351   26.4533   47.4469 H   0  0  0  0  0  0  0  0  0  0  0  0
  182.9011   28.4477   48.8725 H   0  0  0  0  0  0  0  0  0  0  0  0
  182.6451   28.3016   51.3505 H   0  0  0  0  0  0  0  0  0  0  0  0
  182.4330   26.7960   53.1920 H   0  0  0  0  0  0  0  0  0  0  0  0
  179.7920   21.4020   50.9680 H   0  0  0  0  0  0  0  0  0  0  0  0
  178.9238   22.2053   47.6561 H   0  0  0  0  0  0  0  0  0  0  0  0
  177.9453   21.2288   45.0749 H   0  0  0  0  0  0  0  0  0  0  0  0
  178.1244   19.4185   45.3442 H   0  0  0  0  0  0  0  0  0  0  0  0
  176.7068   22.5749   46.6563 H   0  0  0  0  0  0  0  0  0  0  0  0
  174.8865   22.6181   48.3552 H   0  0  0  0  0  0  0  0  0  0  0  0
  174.1937   20.5153   49.5012 H   0  0  0  0  0  0  0  0  0  0  0  0
  175.3184   18.3630   48.9378 H   0  0  0  0  0  0  0  0  0  0  0  0
  177.1363   18.3095   47.2381 H   0  0  0  0  0  0  0  0  0  0  0  0
  1  2  1  0
  2  3  2  0
  3  4  1  0
  4  5  2  0
  5  6  1  0
  6  7  1  0
  7  8  1  0
  8  9  2  0
  9 10  1  0
 10 11  2  0
 11 12  1  0
 12 13  1  0
 12 14  2  0
 14 15  1  0
 15 16  2  0
 15 17  1  0
 17 18  1  0
  5 19  1  0
 19 20  2  0
 20 21  1  0
 21 22  1  0
 22 23  2  0
 23 24  1  0
 24 25  2  0
 25 26  1  0
 26 27  2  0
 20  2  1  0
 27 22  1  0
 17  6  2  0
 14  8  1  0
  1 28  1  0
  1 29  1  0
  1 30  1  0
  3 31  1  0
  4 32  1  0
  9 33  1  0
 10 34  1  0
 11 35  1  0
 13 36  1  0
 18 37  1  0
 19 38  1  0
 21 39  1  0
 21 40  1  0
 23 41  1  0
 24 42  1  0
 25 43  1  0
 26 44  1  0
 27 45  1  0
M  END
>  <meeko>  (8) 
{"is_sidechain": [false], "free_energy": -8.044, "intermolecular_energy": -9.663, "internal_energy": -0.925}

$$$$
cand_001_out
     RDKit          3D

 45 48  0  0  0  0  0  0  0  0999 V2000
  181.1290   19.9260   45.7800 C   0  0  0  0  0  0  0  0  0  0  0  0
  180.2040   20.5170   46.8090 C   0  0  0  0  0  0  0  0  0  0  0  0
  178.8230   20.3080   46.6700 C   0  0  0  0  0  0  0  0  0  0  0  0
  177.9220   20.8090   47.6130 C   0  0  0  0  0  0  0  0  0  0  0  0
  178.3760   21.5210   48.7270 C   0  0  0  0  0  0  0  0  0  0  0  0
  177.4060   22.0550   49.7070 C   0  0  0  0  0  0  0  0  0  0  0  0
  176.2640   22.5770   49.1070 O   0  0  0  0  0  0  0  0  0  0  0  0
  175.2800   23.1060   49.9030 C   0  0  0  0  0  0  0  0  0  0  0  0
  174.1590   23.6310   49.2590 C   0  0  0  0  0  0  0  0  0  0  0  0
  173.1200   24.1830   50.0100 C   0  0  0  0  0  0  0  0  0  0  0  0
  173.2010   24.2100   51.4030 C   0  0  0  0  0  0  0  0  0  0  0  0
  174.3200   23.6850   52.0440 C   0  0  0  0  0  0  0  0  0  0  0  0
  174.3340   23.7420   53.4100 O   0  0  0  0  0  0  0  0  0  0  0  0
  175.3610   23.1320   51.2910 C   0  0  0  0  0  0  0  0  0  0  0  0
  176.5540   22.5700   51.9250 C   0  0  0  0  0  0  0  0  0  0  0  0
  176.6960   22.5490   53.1450 O   0  0  0  0  0  0  0  0  0  0  0  0
  177.6030   22.0160   51.0370 C   0  0  0  0  0  0  0  0  0  0  0  0
  178.7210   21.4750   51.6470 O   0  0  0  0  0  0  0  0  0  0  0  0
  179.7540   21.7350   48.8640 C   0  0  0  0  0  0  0  0  0  0  0  0
  180.6810   21.2340   47.9250 C   0  0  0  0  0  0  0  0  0  0  0  0
  182.1580   21.4810   48.1700 C   0  0  0  0  0  0  0  0  0  0  0  0
  182.7230   22.7090   47.4900 C   0  0  0  0  0  0  0  0  0  0  0  0
  182.3760   23.9900   47.9480 C   0  0  0  0  0  0  0  0  0  0  0  0
  182.9110   25.1300   47.3430 C   0  0  0  0  0  0  0  0  0  0  0  0
  183.8020   25.0040   46.2810 C   0  0  0  0  0  0  0  0  0  0  0  0
  184.1640   23.7390   45.8240 C   0  0  0  0  0  0  0  0  0  0  0  0
  183.6330   22.5980   46.4280 C   0  0  0  0  0  0  0  0  0  0  0  0
  181.9521   19.4001   46.2859 H   0  0  0  0  0  0  0  0  0  0  0  0
  180.5720   19.2161   45.1509 H   0  0  0  0  0  0  0  0  0  0  0  0
  181.5391   20.7298   45.1509 H   0  0  0  0  0  0  0  0  0  0  0  0
  178.4447   19.7416   45.8062 H   0  0  0  0  0  0  0  0  0  0  0  0
  176.8434   20.6413   47.4773 H   0  0  0  0  0  0  0  0  0  0  0  0
  174.0942   23.6099   48.1611 H   0  0  0  0  0  0  0  0  0  0  0  0
  172.2360   24.5974   49.5032 H   0  0  0  0  0  0  0  0  0  0  0  0
  172.3817   24.6455   51.9939 H   0  0  0  0  0  0  0  0  0  0  0  0
  174.0500   23.0050   53.9130 H   0  0  0  0  0  0  0  0  0  0  0  0
  178.6210   20.8660   52.3520 H   0  0  0  0  0  0  0  0  0  0  0  0
  180.1233   22.3090   49.7267 H   0  0  0  0  0  0  0  0  0  0  0  0
  182.3103   21.5908   49.2539 H   0  0  0  0  0  0  0  0  0  0  0  0
  182.6891   20.6195   47.7390 H   0  0  0  0  0  0  0  0  0  0  0  0
  181.6769   24.0970   48.7905 H   0  0  0  0  0  0  0  0  0  0  0  0
  182.6276   26.1288   47.7065 H   0  0  0  0  0  0  0  0  0  0  0  0
  184.2198   25.9024   45.8032 H   0  0  0  0  0  0  0  0  0  0  0  0
  184.8694   23.6389   44.9859 H   0  0  0  0  0  0  0  0  0  0  0  0
  183.9309   21.6023   46.0678 H   0  0  0  0  0  0  0  0  0  0  0  0
  1  2  1  0
  2  3  2  0
  3  4  1  0
  4  5  2  0
  5  6  1  0
  6  7  1  0
  7  8  1  0
  8  9  2  0
  9 10  1  0
 10 11  2  0
 11 12  1  0
 12 13  1  0
 12 14  2  0
 14 15  1  0
 15 16  2  0
 15 17  1  0
 17 18  1  0
  5 19  1  0
 19 20  2  0
 20 21  1  0
 21 22  1  0
 22 23  2  0
 23 24  1  0
 24 25  2  0
 25 26  1  0
 26 27  2  0
 20  2  1  0
 27 22  1  0
 17  6  2  0
 14  8  1  0
  1 28  1  0
  1 29  1  0
  1 30  1  0
  3 31  1  0
  4 32  1  0
  9 33  1  0
 10 34  1  0
 11 35  1  0
 13 36  1  0
 18 37  1  0
 19 38  1  0
 21 39  1  0
 21 40  1  0
 23 41  1  0
 24 42  1  0
 25 43  1  0
 26 44  1  0
 27 45  1  0
M  END
>  <meeko>  (9) 
{"is_sidechain": [false], "free_energy": -7.84, "intermolecular_energy": -9.68, "internal_energy": -0.656}

$$$$
