cand_054_out
     RDKit          3D

 46 48  0  0  0  0  0  0  0  0999 V2000
  176.3320   23.7550   49.1630 C   0  0  0  0  0  0  0  0  0  0  0  0
  176.6890   23.0260   47.8750 C   0  0  0  0  0  0  0  0  0  0  0  0
  176.9120   21.5850   48.1130 N   0  0  0  0  0  0  0  0  0  0  0  0
  176.6530   21.1400   49.4970 C   0  0  0  0  0  0  0  0  0  0  0  0
  175.5480   20.0930   49.5130 C   0  0  0  0  0  0  0  0  0  0  0  0
  178.1890   21.1330   47.6860 C   0  0  0  0  0  0  0  0  0  0  0  0
  179.3820   21.6930   48.1830 C   0  0  0  0  0  0  0  0  0  0  0  0
  180.6400   21.2280   47.7730 C   0  0  0  0  0  0  0  0  0  0  0  0
  181.8920   21.8330   48.2750 C   0  0  0  0  0  0  0  0  0  0  0  0
  182.5030   22.6630   47.3410 O   0  0  0  0  0  0  0  0  0  0  0  0
  183.6750   23.2900   47.6770 C   0  0  0  0  0  0  0  0  0  0  0  0
  184.2450   24.1250   46.7160 C   0  0  0  0  0  0  0  0  0  0  0  0
  185.4400   24.7930   46.9940 C   0  0  0  0  0  0  0  0  0  0  0  0
  186.0640   24.6250   48.2320 C   0  0  0  0  0  0  0  0  0  0  0  0
  185.4920   23.7910   49.1890 C   0  0  0  0  0  0  0  0  0  0  0  0
  186.1560   23.6720   50.3800 O   0  0  0  0  0  0  0  0  0  0  0  0
  184.2960   23.1240   48.9110 C   0  0  0  0  0  0  0  0  0  0  0  0
  183.6630   22.2390   49.8890 C   0  0  0  0  0  0  0  0  0  0  0  0
  184.1540   22.0350   50.9980 O   0  0  0  0  0  0  0  0  0  0  0  0
  182.3930   21.5850   49.5000 C   0  0  0  0  0  0  0  0  0  0  0  0
  181.8090   20.7410   50.4270 O   0  0  0  0  0  0  0  0  0  0  0  0
  180.6960   20.1900   46.8350 C   0  0  0  0  0  0  0  0  0  0  0  0
  179.5240   19.6160   46.3380 C   0  0  0  0  0  0  0  0  0  0  0  0
  178.2690   20.0720   46.7600 C   0  0  0  0  0  0  0  0  0  0  0  0
  177.0220   19.4300   46.2140 C   0  0  0  0  0  0  0  0  0  0  0  0
  176.6319   23.1426   50.0261 H   0  0  0  0  0  0  0  0  0  0  0  0
  176.8597   24.7196   49.1967 H   0  0  0  0  0  0  0  0  0  0  0  0
  175.2465   23.9296   49.1967 H   0  0  0  0  0  0  0  0  0  0  0  0
  175.8653   23.1463   47.1560 H   0  0  0  0  0  0  0  0  0  0  0  0
  177.6198   23.4589   47.4798 H   0  0  0  0  0  0  0  0  0  0  0  0
  177.5720   20.7052   49.9171 H   0  0  0  0  0  0  0  0  0  0  0  0
  176.3378   22.0046   50.0996 H   0  0  0  0  0  0  0  0  0  0  0  0
  175.2898   19.8483   50.5539 H   0  0  0  0  0  0  0  0  0  0  0  0
  174.6602   20.4890   48.9983 H   0  0  0  0  0  0  0  0  0  0  0  0
  175.8956   19.1851   48.9983 H   0  0  0  0  0  0  0  0  0  0  0  0
  179.3256   22.5157   48.9110 H   0  0  0  0  0  0  0  0  0  0  0  0
  183.7542   24.2573   45.7405 H   0  0  0  0  0  0  0  0  0  0  0  0
  185.8900   25.4521   46.2369 H   0  0  0  0  0  0  0  0  0  0  0  0
  187.0053   25.1504   48.4506 H   0  0  0  0  0  0  0  0  0  0  0  0
  185.9040   23.0090   50.9930 H   0  0  0  0  0  0  0  0  0  0  0  0
  181.0850   21.0380   50.9410 H   0  0  0  0  0  0  0  0  0  0  0  0
  181.6726   19.8231   46.4862 H   0  0  0  0  0  0  0  0  0  0  0  0
  179.5873   18.7966   45.6069 H   0  0  0  0  0  0  0  0  0  0  0  0
  176.3837   19.1014   47.0474 H   0  0  0  0  0  0  0  0  0  0  0  0
  176.4743   20.1582   45.5978 H   0  0  0  0  0  0  0  0  0  0  0  0
  177.2966   18.5612   45.5978 H   0  0  0  0  0  0  0  0  0  0  0  0
  1  2  1  0
  2  3  1  0
  3  4  1  0
  4  5  1  0
  3  6  1  0
  6  7  2  0
  7  8  1  0
  8  9  1  0
  9 10  1  0
 10 11  1  0
 11 12  2  0
 12 13  1  0
 13 14  2  0
 14 15  1  0
 15 16  1  0
 15 17  2  0
 17 18  1  0
 18 19  2  0
 18 20  1  0
 20 21  1  0
  8 22  2  0
 22 23  1  0
 23 24  2  0
 24 25  1  0
 24  6  1  0
 20  9  2  0
 17 11  1  0
  1 26  1  0
  1 27  1  0
  1 28  1  0
  2 29  1  0
  2 30  1  0
  4 31  1  0
  4 32  1  0
  5 33  1  0
  5 34  1  0
  5 35  1  0
  7 36  1  0
 12 37  1  0
 13 38  1  0
 14 39  1  0
 16 40  1  0
 21 41  1  0
 22 42  1  0
 23 43  1  0
 25 44  1  0
 25 45  1  0
 25 46  1  0
M  END
>  <meeko>  (1) 
{"is_sidechain": [false], "free_energy": -6.747, "intermolecular_energy": -8.719, "internal_energy": -0.883}

$$$$
cand_054_out
     RDKit          3D

 46 48  0  0  0  0  0  0  0  0999 V2000
  184.5510   22.3440   49.4620 C   0  0  0  0  0  0  0  0  0  0  0  0
  183.2720   23.1660   49.5470 C   0  0  0  0  0  0  0  0  0  0  0  0
  182.5950   23.2520   48.2370 N   0  0  0  0  0  0  0  0  0  0  0  0
  182.4300   24.6240   47.7170 C   0  0  0  0  0  0  0  0  0  0  0  0
  183.4950   24.9210   46.6700 C   0  0  0  0  0  0  0  0  0  0  0  0
  181.3550   22.5620   48.1960 C   0  0  0  0  0  0  0  0  0  0  0  0
  180.2870   22.8970   49.0500 C   0  0  0  0  0  0  0  0  0  0  0  0
  179.0570   22.2250   48.9910 C   0  0  0  0  0  0  0  0  0  0  0  0
  177.9450   22.5600   49.9060 C   0  0  0  0  0  0  0  0  0  0  0  0
  176.9280   23.2720   49.2790 O   0  0  0  0  0  0  0  0  0  0  0  0
  175.8320   23.6480   50.0120 C   0  0  0  0  0  0  0  0  0  0  0  0
  174.8300   24.3480   49.3400 C   0  0  0  0  0  0  0  0  0  0  0  0
  173.6870   24.7610   50.0290 C   0  0  0  0  0  0  0  0  0  0  0  0
  173.5490   24.4770   51.3900 C   0  0  0  0  0  0  0  0  0  0  0  0
  174.5520   23.7790   52.0580 C   0  0  0  0  0  0  0  0  0  0  0  0
  174.3520   23.5350   53.3890 O   0  0  0  0  0  0  0  0  0  0  0  0
  175.6940   23.3640   51.3670 C   0  0  0  0  0  0  0  0  0  0  0  0
  176.7700   22.6280   52.0320 C   0  0  0  0  0  0  0  0  0  0  0  0
  176.7250   22.3460   53.2280 O   0  0  0  0  0  0  0  0  0  0  0  0
  177.9340   22.2280   51.2090 C   0  0  0  0  0  0  0  0  0  0  0  0
  178.9520   21.5440   51.8510 O   0  0  0  0  0  0  0  0  0  0  0  0
  178.9060   21.1880   48.0620 C   0  0  0  0  0  0  0  0  0  0  0  0
  179.9510   20.8480   47.2000 C   0  0  0  0  0  0  0  0  0  0  0  0
  181.1730   21.5300   47.2520 C   0  0  0  0  0  0  0  0  0  0  0  0
  182.2790   21.1480   46.3060 C   0  0  0  0  0  0  0  0  0  0  0  0
  184.9077   22.1148   50.4770 H   0  0  0  0  0  0  0  0  0  0  0  0
  184.3490   21.4062   48.9238 H   0  0  0  0  0  0  0  0  0  0  0  0
  185.3202   22.9173   48.9238 H   0  0  0  0  0  0  0  0  0  0  0  0
  182.5913   22.6939   50.2707 H   0  0  0  0  0  0  0  0  0  0  0  0
  183.5374   24.1849   49.8656 H   0  0  0  0  0  0  0  0  0  0  0  0
  181.4341   24.7222   47.2603 H   0  0  0  0  0  0  0  0  0  0  0  0
  182.5342   25.3377   48.5476 H   0  0  0  0  0  0  0  0  0  0  0  0
  184.4383   25.1841   47.1709 H   0  0  0  0  0  0  0  0  0  0  0  0
  183.6493   24.0316   46.0414 H   0  0  0  0  0  0  0  0  0  0  0  0
  183.1667   25.7619   46.0414 H   0  0  0  0  0  0  0  0  0  0  0  0
  180.4205   23.7067   49.7825 H   0  0  0  0  0  0  0  0  0  0  0  0
  174.9396   24.5745   48.2692 H   0  0  0  0  0  0  0  0  0  0  0  0
  172.8948   25.3104   49.4994 H   0  0  0  0  0  0  0  0  0  0  0  0
  172.6499   24.8041   51.9328 H   0  0  0  0  0  0  0  0  0  0  0  0
  174.1280   22.6710   53.6790 H   0  0  0  0  0  0  0  0  0  0  0  0
  178.7480   20.9070   52.5070 H   0  0  0  0  0  0  0  0  0  0  0  0
  177.9558   20.6363   48.0107 H   0  0  0  0  0  0  0  0  0  0  0  0
  179.8126   20.0352   46.4719 H   0  0  0  0  0  0  0  0  0  0  0  0
  183.1648   20.8421   46.8820 H   0  0  0  0  0  0  0  0  0  0  0  0
  181.9472   20.3124   45.6722 H   0  0  0  0  0  0  0  0  0  0  0  0
  182.5336   22.0103   45.6722 H   0  0  0  0  0  0  0  0  0  0  0  0
  1  2  1  0
  2  3  1  0
  3  4  1  0
  4  5  1  0
  3  6  1  0
  6  7  2  0
  7  8  1  0
  8  9  1  0
  9 10  1  0
 10 11  1  0
 11 12  2  0
 12 13  1  0
 13 14  2  0
 14 15  1  0
 15 16  1  0
 15 17  2  0
 17 18  1  0
 18 19  2  0
 18 20  1  0
 20 21  1  0
  8 22  2  0
 22 23  1  0
 23 24  2  0
 24 25  1  0
 24  6  1  0
 20  9  2  0
 17 11  1  0
  1 26  1  0
  1 27  1  0
  1 28  1  0
  2 29  1  0
  2 30  1  0
  4 31  1  0
  4 32  1  0
  5 33  1  0
  5 34  1  0
  5 35  1  0
  7 36  1  0
 12 37  1  0
 13 38  1  0
 14 39  1  0
 16 40  1  0
 21 41  1  0
 22 42  1  0
 23 43  1  0
 25 44  1  0
 25 45  1  0
 25 46  1  0
M  END
>  <meeko>  (2) 
{"is_sidechain": [false], "free_energy": -6.602, "intermolecular_energy": -8.505, "internal_energy": -0.909}

$$$$
cand_054_out
     RDKit          3D

 46 48  0  0  0  0  0  0  0  0999 V2000
  183.7080   25.2590   52.0890 C   0  0  0  0  0  0  0  0  0  0  0  0
  182.8120   25.9190   51.0500 C   0  0  0  0  0  0  0  0  0  0  0  0
  183.1280   25.4500   49.6860 N   0  0  0  0  0  0  0  0  0  0  0  0
  182.6490   26.3320   48.6030 C   0  0  0  0  0  0  0  0  0  0  0  0
  181.7640   27.4310   49.1740 C   0  0  0  0  0  0  0  0  0  0  0  0
  182.7200   24.1120   49.4410 C   0  0  0  0  0  0  0  0  0  0  0  0
  181.3780   23.7060   49.5720 C   0  0  0  0  0  0  0  0  0  0  0  0
  180.9780   22.3880   49.3090 C   0  0  0  0  0  0  0  0  0  0  0  0
  179.5730   21.9560   49.4720 C   0  0  0  0  0  0  0  0  0  0  0  0
  178.9130   21.7980   48.2580 O   0  0  0  0  0  0  0  0  0  0  0  0
  177.6010   21.4000   48.2630 C   0  0  0  0  0  0  0  0  0  0  0  0
  176.9830   21.2400   47.0220 C   0  0  0  0  0  0  0  0  0  0  0  0
  175.6470   20.8370   46.9570 C   0  0  0  0  0  0  0  0  0  0  0  0
  174.9300   20.5960   48.1310 C   0  0  0  0  0  0  0  0  0  0  0  0
  175.5500   20.7570   49.3670 C   0  0  0  0  0  0  0  0  0  0  0  0
  174.7900   20.5050   50.4770 O   0  0  0  0  0  0  0  0  0  0  0  0
  176.8870   21.1590   49.4320 C   0  0  0  0  0  0  0  0  0  0  0  0
  177.5760   21.3390   50.7110 C   0  0  0  0  0  0  0  0  0  0  0  0
  177.0110   21.1530   51.7870 O   0  0  0  0  0  0  0  0  0  0  0  0
  178.9950   21.7590   50.6710 C   0  0  0  0  0  0  0  0  0  0  0  0
  179.6320   21.9390   51.8860 O   0  0  0  0  0  0  0  0  0  0  0  0
  181.9500   21.4600   48.9190 C   0  0  0  0  0  0  0  0  0  0  0  0
  183.2850   21.8450   48.7730 C   0  0  0  0  0  0  0  0  0  0  0  0
  183.6790   23.1660   49.0240 C   0  0  0  0  0  0  0  0  0  0  0  0
  185.1220   23.5560   48.8510 C   0  0  0  0  0  0  0  0  0  0  0  0
  183.3539   25.5198   53.0973 H   0  0  0  0  0  0  0  0  0  0  0  0
  183.6760   24.1670   51.9602 H   0  0  0  0  0  0  0  0  0  0  0  0
  184.7414   25.6133   51.9602 H   0  0  0  0  0  0  0  0  0  0  0  0
  181.7632   25.6770   51.2771 H   0  0  0  0  0  0  0  0  0  0  0  0
  182.9808   27.0053   51.0890 H   0  0  0  0  0  0  0  0  0  0  0  0
  183.5126   26.7873   48.0962 H   0  0  0  0  0  0  0  0  0  0  0  0
  182.0647   25.7362   47.8863 H   0  0  0  0  0  0  0  0  0  0  0  0
  181.7948   27.3927   50.2729 H   0  0  0  0  0  0  0  0  0  0  0  0
  182.1284   28.4105   48.8309 H   0  0  0  0  0  0  0  0  0  0  0  0
  180.7293   27.2839   48.8309 H   0  0  0  0  0  0  0  0  0  0  0  0
  180.6241   24.4417   49.8888 H   0  0  0  0  0  0  0  0  0  0  0  0
  177.5467   21.4308   46.0969 H   0  0  0  0  0  0  0  0  0  0  0  0
  175.1589   20.7093   45.9795 H   0  0  0  0  0  0  0  0  0  0  0  0
  173.8777   20.2797   48.0792 H   0  0  0  0  0  0  0  0  0  0  0  0
  174.5950   21.1960   51.0790 H   0  0  0  0  0  0  0  0  0  0  0  0
  180.1270   21.2400   52.2640 H   0  0  0  0  0  0  0  0  0  0  0  0
  181.6600   20.4167   48.7254 H   0  0  0  0  0  0  0  0  0  0  0  0
  184.0342   21.1038   48.4579 H   0  0  0  0  0  0  0  0  0  0  0  0
  185.5887   23.6821   49.8391 H   0  0  0  0  0  0  0  0  0  0  0  0
  185.6504   22.7684   48.2937 H   0  0  0  0  0  0  0  0  0  0  0  0
  185.1817   24.5025   48.2937 H   0  0  0  0  0  0  0  0  0  0  0  0
  1  2  1  0
  2  3  1  0
  3  4  1  0
  4  5  1  0
  3  6  1  0
  6  7  2  0
  7  8  1  0
  8  9  1  0
  9 10  1  0
 10 11  1  0
 11 12  2  0
 12 13  1  0
 13 14  2  0
 14 15  1  0
 15 16  1  0
 15 17  2  0
 17 18  1  0
 18 19  2  0
 18 20  1  0
 20 21  1  0
  8 22  2  0
 22 23  1  0
 23 24  2  0
 24 25  1  0
 24  6  1  0
 20  9  2  0
 17 11  1  0
  1 26  1  0
  1 27  1  0
  1 28  1  0
  2 29  1  0
  2 30  1  0
  4 31  1  0
  4 32  1  0
  5 33  1  0
  5 34  1  0
  5 35  1  0
  7 36  1  0
 12 37  1  0
 13 38  1  0
 14 39  1  0
 16 40  1  0
 21 41  1  0
 22 42  1  0
 23 43  1  0
 25 44  1  0
 25 45  1  0
 25 46  1  0
M  END
>  <meeko>  (3) 
{"is_sidechain": [false], "free_energy": -6.54, "intermolecular_energy": -8.399, "internal_energy": -0.935}

$$$$
cand_054_out
     RDKit          3D

 46 48  0  0  0  0  0  0  0  0999 V2000
  172.0700   24.2080   48.9940 C   0  0  0  0  0  0  0  0  0  0  0  0
  172.9780   23.3670   49.8800 C   0  0  0  0  0  0  0  0  0  0  0  0
  174.0930   24.1660   50.4270 N   0  0  0  0  0  0  0  0  0  0  0  0
  174.4360   25.3680   49.6390 C   0  0  0  0  0  0  0  0  0  0  0  0
  174.5650   26.5760   50.5560 C   0  0  0  0  0  0  0  0  0  0  0  0
  175.2620   23.4020   50.6840 C   0  0  0  0  0  0  0  0  0  0  0  0
  176.0310   22.8440   49.6450 C   0  0  0  0  0  0  0  0  0  0  0  0
  177.1960   22.1070   49.9040 C   0  0  0  0  0  0  0  0  0  0  0  0
  177.9890   21.4990   48.8140 C   0  0  0  0  0  0  0  0  0  0  0  0
  179.2710   22.0290   48.7200 O   0  0  0  0  0  0  0  0  0  0  0  0
  180.1160   21.5540   47.7500 C   0  0  0  0  0  0  0  0  0  0  0  0
  181.3970   22.1040   47.7010 C   0  0  0  0  0  0  0  0  0  0  0  0
  182.3070   21.6650   46.7360 C   0  0  0  0  0  0  0  0  0  0  0  0
  181.9330   20.6790   45.8190 C   0  0  0  0  0  0  0  0  0  0  0  0
  180.6540   20.1330   45.8710 C   0  0  0  0  0  0  0  0  0  0  0  0
  180.3550   19.1720   44.9440 O   0  0  0  0  0  0  0  0  0  0  0  0
  179.7450   20.5710   46.8380 C   0  0  0  0  0  0  0  0  0  0  0  0
  178.3910   20.0230   46.9260 C   0  0  0  0  0  0  0  0  0  0  0  0
  177.9860   19.1580   46.1520 O   0  0  0  0  0  0  0  0  0  0  0  0
  177.5070   20.5500   47.9910 C   0  0  0  0  0  0  0  0  0  0  0  0
  176.2250   20.0340   48.0570 O   0  0  0  0  0  0  0  0  0  0  0  0
  177.5860   21.9200   51.2360 C   0  0  0  0  0  0  0  0  0  0  0  0
  176.8420   22.4750   52.2800 C   0  0  0  0  0  0  0  0  0  0  0  0
  175.6860   23.2210   52.0170 C   0  0  0  0  0  0  0  0  0  0  0  0
  174.9080   23.8140   53.1600 C   0  0  0  0  0  0  0  0  0  0  0  0
  171.4084   24.8208   49.6238 H   0  0  0  0  0  0  0  0  0  0  0  0
  172.6830   24.8644   48.3589 H   0  0  0  0  0  0  0  0  0  0  0  0
  171.4624   23.5466   48.3589 H   0  0  0  0  0  0  0  0  0  0  0  0
  172.3868   22.9607   50.7139 H   0  0  0  0  0  0  0  0  0  0  0  0
  173.4019   22.5567   49.2687 H   0  0  0  0  0  0  0  0  0  0  0  0
  175.3913   25.2020   49.1196 H   0  0  0  0  0  0  0  0  0  0  0  0
  173.6386   25.5568   48.9052 H   0  0  0  0  0  0  0  0  0  0  0  0
  174.5297   26.2457   51.6047 H   0  0  0  0  0  0  0  0  0  0  0  0
  175.5223   27.0823   50.3630 H   0  0  0  0  0  0  0  0  0  0  0  0
  173.7362   27.2730   50.3630 H   0  0  0  0  0  0  0  0  0  0  0  0
  175.7099   22.9898   48.6031 H   0  0  0  0  0  0  0  0  0  0  0  0
  181.6903   22.8822   48.4210 H   0  0  0  0  0  0  0  0  0  0  0  0
  183.3185   22.0957   46.6980 H   0  0  0  0  0  0  0  0  0  0  0  0
  182.6483   20.3351   45.0574 H   0  0  0  0  0  0  0  0  0  0  0  0
  179.6450   18.5780   45.0960 H   0  0  0  0  0  0  0  0  0  0  0  0
  176.0960   19.1200   48.2160 H   0  0  0  0  0  0  0  0  0  0  0  0
  178.4867   21.3305   51.4623 H   0  0  0  0  0  0  0  0  0  0  0  0
  177.1675   22.3245   53.3199 H   0  0  0  0  0  0  0  0  0  0  0  0
  175.3450   23.4809   54.1129 H   0  0  0  0  0  0  0  0  0  0  0  0
  174.9495   24.9117   53.1014 H   0  0  0  0  0  0  0  0  0  0  0  0
  173.8606   23.4830   53.1014 H   0  0  0  0  0  0  0  0  0  0  0  0
  1  2  1  0
  2  3  1  0
  3  4  1  0
  4  5  1  0
  3  6  1  0
  6  7  2  0
  7  8  1  0
  8  9  1  0
  9 10  1  0
 10 11  1  0
 11 12  2  0
 12 13  1  0
 13 14  2  0
 14 15  1  0
 15 16  1  0
 15 17  2  0
 17 18  1  0
 18 19  2  0
 18 20  1  0
 20 21  1  0
  8 22  2  0
 22 23  1  0
 23 24  2  0
 24 25  1  0
 24  6  1  0
 20  9  2  0
 17 11  1  0
  1 26  1  0
  1 27  1  0
  1 28  1  0
  2 29  1  0
  2 30  1  0
  4 31  1  0
  4 32  1  0
  5 33  1  0
  5 34  1  0
  5 35  1  0
  7 36  1  0
 12 37  1  0
 13 38  1  0
 14 39  1  0
 16 40  1  0
 21 41  1  0
 22 42  1  0
 23 43  1  0
 25 44  1  0
 25 45  1  0
 25 46  1  0
M  END
>  <meeko>  (4) 
{"is_sidechain": [false], "free_energy": -6.533, "intermolecular_energy": -8.517, "internal_energy": -0.809}

$$$$
cand_054_out
     RDKit          3D

 46 48  0  0  0  0  0  0  0  0999 V2000
  180.3720   20.6470   47.7040 C   0  0  0  0  0  0  0  0  0  0  0  0
  179.5330   21.6880   48.4330 C   0  0  0  0  0  0  0  0  0  0  0  0
  178.5360   22.3050   47.5340 N   0  0  0  0  0  0  0  0  0  0  0  0
  178.6520   23.7720   47.3990 C   0  0  0  0  0  0  0  0  0  0  0  0
  179.8430   24.2800   48.1990 C   0  0  0  0  0  0  0  0  0  0  0  0
  177.1980   21.9480   47.8460 C   0  0  0  0  0  0  0  0  0  0  0  0
  176.5040   22.5280   48.9260 C   0  0  0  0  0  0  0  0  0  0  0  0
  175.1750   22.1860   49.2160 C   0  0  0  0  0  0  0  0  0  0  0  0
  174.4550   22.7750   50.3650 C   0  0  0  0  0  0  0  0  0  0  0  0
  175.2810   23.0020   51.4600 O   0  0  0  0  0  0  0  0  0  0  0  0
  174.7420   23.5470   52.5970 C   0  0  0  0  0  0  0  0  0  0  0  0
  175.6110   23.7700   53.6660 C   0  0  0  0  0  0  0  0  0  0  0  0
  175.1250   24.3230   54.8540 C   0  0  0  0  0  0  0  0  0  0  0  0
  173.7720   24.6480   54.9720 C   0  0  0  0  0  0  0  0  0  0  0  0
  172.9080   24.4230   53.9040 C   0  0  0  0  0  0  0  0  0  0  0  0
  171.5960   24.7650   54.0880 O   0  0  0  0  0  0  0  0  0  0  0  0
  173.3950   23.8730   52.7150 C   0  0  0  0  0  0  0  0  0  0  0  0
  172.5210   23.6200   51.5690 C   0  0  0  0  0  0  0  0  0  0  0  0
  171.3180   23.8740   51.5980 O   0  0  0  0  0  0  0  0  0  0  0  0
  173.1360   23.0410   50.3530 C   0  0  0  0  0  0  0  0  0  0  0  0
  172.2980   22.7950   49.2800 O   0  0  0  0  0  0  0  0  0  0  0  0
  174.5390   21.2340   48.4110 C   0  0  0  0  0  0  0  0  0  0  0  0
  175.2070   20.6550   47.3290 C   0  0  0  0  0  0  0  0  0  0  0  0
  176.5300   21.0090   47.0340 C   0  0  0  0  0  0  0  0  0  0  0  0
  177.2230   20.3760   45.8580 C   0  0  0  0  0  0  0  0  0  0  0  0
  180.8855   20.0098   48.4390 H   0  0  0  0  0  0  0  0  0  0  0  0
  179.7189   20.0260   47.0732 H   0  0  0  0  0  0  0  0  0  0  0  0
  181.1175   21.1532   47.0732 H   0  0  0  0  0  0  0  0  0  0  0  0
  179.0085   21.2027   49.2693 H   0  0  0  0  0  0  0  0  0  0  0  0
  180.2047   22.4787   48.7985 H   0  0  0  0  0  0  0  0  0  0  0  0
  178.7898   24.0297   46.3385 H   0  0  0  0  0  0  0  0  0  0  0  0
  177.7345   24.2418   47.7830 H   0  0  0  0  0  0  0  0  0  0  0  0
  179.6285   24.1885   49.2740 H   0  0  0  0  0  0  0  0  0  0  0  0
  180.7330   23.6832   47.9506 H   0  0  0  0  0  0  0  0  0  0  0  0
  180.0283   25.3354   47.9506 H   0  0  0  0  0  0  0  0  0  0  0  0
  177.0173   23.2678   49.5578 H   0  0  0  0  0  0  0  0  0  0  0  0
  176.6761   23.5111   53.5738 H   0  0  0  0  0  0  0  0  0  0  0  0
  175.8088   24.5024   55.6968 H   0  0  0  0  0  0  0  0  0  0  0  0
  173.3894   25.0813   55.9079 H   0  0  0  0  0  0  0  0  0  0  0  0
  171.2950   25.6190   53.8420 H   0  0  0  0  0  0  0  0  0  0  0  0
  171.4430   22.4410   49.4250 H   0  0  0  0  0  0  0  0  0  0  0  0
  173.5028   20.9386   48.6324 H   0  0  0  0  0  0  0  0  0  0  0  0
  174.6890   19.9139   46.7026 H   0  0  0  0  0  0  0  0  0  0  0  0
  177.9904   19.6751   46.2184 H   0  0  0  0  0  0  0  0  0  0  0  0
  176.4869   19.8319   45.2480 H   0  0  0  0  0  0  0  0  0  0  0  0
  177.6984   21.1582   45.2480 H   0  0  0  0  0  0  0  0  0  0  0  0
  1  2  1  0
  2  3  1  0
  3  4  1  0
  4  5  1  0
  3  6  1  0
  6  7  2  0
  7  8  1  0
  8  9  1  0
  9 10  1  0
 10 11  1  0
 11 12  2  0
 12 13  1  0
 13 14  2  0
 14 15  1  0
 15 16  1  0
 15 17  2  0
 17 18  1  0
 18 19  2  0
 18 20  1  0
 20 21  1  0
  8 22  2  0
 22 23  1  0
 23 24  2  0
 24 25  1  0
 24  6  1  0
 20  9  2  0
 17 11  1  0
  1 26  1  0
  1 27  1  0
  1 28  1  0
  2 29  1  0
  2 30  1  0
  4 31  1  0
  4 32  1  0
  5 33  1  0
  5 34  1  0
  5 35  1  0
  7 36  1  0
 12 37  1  0
 13 38  1  0
 14 39  1  0
 16 40  1  0
 21 41  1  0
 22 42  1  0
 23 43  1  0
 25 44  1  0
 25 45  1  0
 25 46  1  0
M  END
>  <meeko>  (5) 
{"is_sidechain": [false], "free_energy": -6.509, "intermolecular_energy": -8.885, "internal_energy": -0.409}

$$$$
cand_054_out
     RDKit          3D

 46 48  0  0  0  0  0  0  0  0999 V2000
  171.2800   23.4680   53.0690 C   0  0  0  0  0  0  0  0  0  0  0  0
  171.8700   24.0520   51.7920 C   0  0  0  0  0  0  0  0  0  0  0  0
  173.0550   24.8870   52.0770 N   0  0  0  0  0  0  0  0  0  0  0  0
  173.2490   26.0200   51.1490 C   0  0  0  0  0  0  0  0  0  0  0  0
  172.2870   25.9070   49.9750 C   0  0  0  0  0  0  0  0  0  0  0  0
  174.2580   24.1400   52.1910 C   0  0  0  0  0  0  0  0  0  0  0  0
  174.7920   23.4160   51.1080 C   0  0  0  0  0  0  0  0  0  0  0  0
  175.9910   22.6970   51.2220 C   0  0  0  0  0  0  0  0  0  0  0  0
  176.5380   21.9160   50.0920 C   0  0  0  0  0  0  0  0  0  0  0  0
  177.7070   22.4640   49.5740 O   0  0  0  0  0  0  0  0  0  0  0  0
  178.3220   21.8400   48.5200 C   0  0  0  0  0  0  0  0  0  0  0  0
  179.4990   22.4160   48.0420 C   0  0  0  0  0  0  0  0  0  0  0  0
  180.1750   21.8300   46.9690 C   0  0  0  0  0  0  0  0  0  0  0  0
  179.6730   20.6700   46.3740 C   0  0  0  0  0  0  0  0  0  0  0  0
  178.4980   20.0980   46.8540 C   0  0  0  0  0  0  0  0  0  0  0  0
  178.0620   18.9630   46.2260 O   0  0  0  0  0  0  0  0  0  0  0  0
  177.8220   20.6840   47.9280 C   0  0  0  0  0  0  0  0  0  0  0  0
  176.5850   20.1140   48.4630 C   0  0  0  0  0  0  0  0  0  0  0  0
  176.0770   19.1000   47.9890 O   0  0  0  0  0  0  0  0  0  0  0  0
  175.9510   20.8070   49.6080 C   0  0  0  0  0  0  0  0  0  0  0  0
  174.7750   20.2670   50.0960 O   0  0  0  0  0  0  0  0  0  0  0  0
  176.6560   22.6980   52.4540 C   0  0  0  0  0  0  0  0  0  0  0  0
  176.1470   23.4180   53.5370 C   0  0  0  0  0  0  0  0  0  0  0  0
  174.9570   24.1460   53.4160 C   0  0  0  0  0  0  0  0  0  0  0  0
  174.4350   24.9190   54.5970 C   0  0  0  0  0  0  0  0  0  0  0  0
  171.7559   23.9391   53.9417 H   0  0  0  0  0  0  0  0  0  0  0  0
  170.1971   23.6599   53.0938 H   0  0  0  0  0  0  0  0  0  0  0  0
  171.4608   22.3832   53.0938 H   0  0  0  0  0  0  0  0  0  0  0  0
  172.1648   23.2285   51.1250 H   0  0  0  0  0  0  0  0  0  0  0  0
  171.1067   24.6858   51.3169 H   0  0  0  0  0  0  0  0  0  0  0  0
  173.0618   26.9634   51.6829 H   0  0  0  0  0  0  0  0  0  0  0  0
  174.2817   26.0018   50.7705 H   0  0  0  0  0  0  0  0  0  0  0  0
  171.2607   25.7864   50.3522 H   0  0  0  0  0  0  0  0  0  0  0  0
  172.3477   26.8185   49.3622 H   0  0  0  0  0  0  0  0  0  0  0  0
  172.5573   25.0344   49.3622 H   0  0  0  0  0  0  0  0  0  0  0  0
  174.2552   23.4141   50.1479 H   0  0  0  0  0  0  0  0  0  0  0  0
  179.8942   23.3301   48.5091 H   0  0  0  0  0  0  0  0  0  0  0  0
  181.1040   22.2827   46.5921 H   0  0  0  0  0  0  0  0  0  0  0  0
  180.2048   20.2097   45.5283 H   0  0  0  0  0  0  0  0  0  0  0  0
  177.5430   19.0270   45.4470 H   0  0  0  0  0  0  0  0  0  0  0  0
  174.4950   19.4190   49.8130 H   0  0  0  0  0  0  0  0  0  0  0  0
  177.5885   22.1261   52.5701 H   0  0  0  0  0  0  0  0  0  0  0  0
  176.6868   23.4132   54.4955 H   0  0  0  0  0  0  0  0  0  0  0  0
  174.7633   24.4329   55.5275 H   0  0  0  0  0  0  0  0  0  0  0  0
  174.8244   25.9472   54.5634 H   0  0  0  0  0  0  0  0  0  0  0  0
  173.3358   24.9419   54.5634 H   0  0  0  0  0  0  0  0  0  0  0  0
  1  2  1  0
  2  3  1  0
  3  4  1  0
  4  5  1  0
  3  6  1  0
  6  7  2  0
  7  8  1  0
  8  9  1  0
  9 10  1  0
 10 11  1  0
 11 12  2  0
 12 13  1  0
 13 14  2  0
 14 15  1  0
 15 16  1  0
 15 17  2  0
 17 18  1  0
 18 19  2  0
 18 20  1  0
 20 21  1  0
  8 22  2  0
 22 23  1  0
 23 24  2  0
 24 25  1  0
 24  6  1  0
 20  9  2  0
 17 11  1  0
  1 26  1  0
  1 27  1  0
  1 28  1  0
  2 29  1  0
  2 30  1  0
  4 31  1  0
  4 32  1  0
  5 33  1  0
  5 34  1  0
  5 35  1  0
  7 36  1  0
 12 37  1  0
 13 38  1  0
 14 39  1  0
 16 40  1  0
 21 41  1  0
 22 42  1  0
 23 43  1  0
 25 44  1  0
 25 45  1  0
 25 46  1  0
M  END
>  <meeko>  (6) 
{"is_sidechain": [false], "free_energy": -6.496, "intermolecular_energy": -8.396, "internal_energy": -0.883}

$$$$
cand_054_out
     RDKit          3D

 46 48  0  0  0  0  0  0  0  0999 V2000
  173.2890   28.4630   49.9420 C   0  0  0  0  0  0  0  0  0  0  0  0
  174.3550   27.4380   50.3060 C   0  0  0  0  0  0  0  0  0  0  0  0
  173.7710   26.2750   51.0040 N   0  0  0  0  0  0  0  0  0  0  0  0
  174.0330   26.2310   52.4570 C   0  0  0  0  0  0  0  0  0  0  0  0
  172.8230   25.6720   53.1920 C   0  0  0  0  0  0  0  0  0  0  0  0
  174.1120   25.0310   50.4100 C   0  0  0  0  0  0  0  0  0  0  0  0
  175.4240   24.5210   50.4480 C   0  0  0  0  0  0  0  0  0  0  0  0
  175.7500   23.2820   49.8760 C   0  0  0  0  0  0  0  0  0  0  0  0
  177.1330   22.7590   49.8940 C   0  0  0  0  0  0  0  0  0  0  0  0
  177.5110   22.1940   48.6810 O   0  0  0  0  0  0  0  0  0  0  0  0
  178.7720   21.6690   48.5580 C   0  0  0  0  0  0  0  0  0  0  0  0
  179.1140   21.1270   47.3190 C   0  0  0  0  0  0  0  0  0  0  0  0
  180.3830   20.5740   47.1270 C   0  0  0  0  0  0  0  0  0  0  0  0
  181.3070   20.5640   48.1750 C   0  0  0  0  0  0  0  0  0  0  0  0
  180.9620   21.1050   49.4100 C   0  0  0  0  0  0  0  0  0  0  0  0
  181.9140   21.0620   50.3910 O   0  0  0  0  0  0  0  0  0  0  0  0
  179.6930   21.6590   49.6010 C   0  0  0  0  0  0  0  0  0  0  0  0
  179.2910   22.2390   50.8830 C   0  0  0  0  0  0  0  0  0  0  0  0
  180.0450   22.2610   51.8530 O   0  0  0  0  0  0  0  0  0  0  0  0
  177.9270   22.8070   50.9790 C   0  0  0  0  0  0  0  0  0  0  0  0
  177.5530   23.3410   52.2000 O   0  0  0  0  0  0  0  0  0  0  0  0
  174.7370   22.5510   49.2450 C   0  0  0  0  0  0  0  0  0  0  0  0
  173.4280   23.0350   49.2050 C   0  0  0  0  0  0  0  0  0  0  0  0
  173.1030   24.2660   49.7890 C   0  0  0  0  0  0  0  0  0  0  0  0
  171.6820   24.7610   49.7380 C   0  0  0  0  0  0  0  0  0  0  0  0
  172.8537   28.8816   50.8614 H   0  0  0  0  0  0  0  0  0  0  0  0
  173.7442   29.2713   49.3508 H   0  0  0  0  0  0  0  0  0  0  0  0
  172.4992   27.9765   49.3508 H   0  0  0  0  0  0  0  0  0  0  0  0
  174.8475   27.0921   49.3853 H   0  0  0  0  0  0  0  0  0  0  0  0
  175.0793   27.9178   50.9807 H   0  0  0  0  0  0  0  0  0  0  0  0
  174.9044   25.5880   52.6499 H   0  0  0  0  0  0  0  0  0  0  0  0
  174.2323   27.2511   52.8171 H   0  0  0  0  0  0  0  0  0  0  0  0
  172.9861   25.7474   54.2772 H   0  0  0  0  0  0  0  0  0  0  0  0
  171.9275   26.2477   52.9150 H   0  0  0  0  0  0  0  0  0  0  0  0
  172.6809   24.6170   52.9150 H   0  0  0  0  0  0  0  0  0  0  0  0
  176.2135   25.1091   50.9387 H   0  0  0  0  0  0  0  0  0  0  0  0
  178.3860   21.1349   46.4944 H   0  0  0  0  0  0  0  0  0  0  0  0
  180.6545   20.1465   46.1505 H   0  0  0  0  0  0  0  0  0  0  0  0
  182.3060   20.1290   48.0241 H   0  0  0  0  0  0  0  0  0  0  0  0
  182.0250   20.2840   50.9040 H   0  0  0  0  0  0  0  0  0  0  0  0
  177.8690   24.1840   52.4590 H   0  0  0  0  0  0  0  0  0  0  0  0
  174.9746   21.5850   48.7756 H   0  0  0  0  0  0  0  0  0  0  0  0
  172.6438   22.4435   48.7098 H   0  0  0  0  0  0  0  0  0  0  0  0
  171.3028   24.8931   50.7621 H   0  0  0  0  0  0  0  0  0  0  0  0
  171.6480   25.7239   49.2073 H   0  0  0  0  0  0  0  0  0  0  0  0
  171.0571   24.0276   49.2073 H   0  0  0  0  0  0  0  0  0  0  0  0
  1  2  1  0
  2  3  1  0
  3  4  1  0
  4  5  1  0
  3  6  1  0
  6  7  2  0
  7  8  1  0
  8  9  1  0
  9 10  1  0
 10 11  1  0
 11 12  2  0
 12 13  1  0
 13 14  2  0
 14 15  1  0
 15 16  1  0
 15 17  2  0
 17 18  1  0
 18 19  2  0
 18 20  1  0
 20 21  1  0
  8 22  2  0
 22 23  1  0
 23 24  2  0
 24 25  1  0
 24  6  1  0
 20  9  2  0
 17 11  1  0
  1 26  1  0
  1 27  1  0
  1 28  1  0
  2 29  1  0
  2 30  1  0
  4 31  1  0
  4 32  1  0
  5 33  1  0
  5 34  1  0
  5 35  1  0
  7 36  1  0
 12 37  1  0
 13 38  1  0
 14 39  1  0
 16 40  1  0
 21 41  1  0
 22 42  1  0
 23 43  1  0
 25 44  1  0
 25 45  1  0
 25 46  1  0
M  END
>  <meeko>  (7) 
{"is_sidechain": [false], "free_energy": -6.459, "intermolecular_energy": -8.571, "internal_energy": -0.66}

$$$$
cand_054_out
     RDKit          3D

 46 48  0  0  0  0  0  0  0  0999 V2000
  174.0790   23.4000   49.5720 C   0  0  0  0  0  0  0  0  0  0  0  0
  175.6010   23.3590   49.5420 C   0  0  0  0  0  0  0  0  0  0  0  0
  176.0990   22.0050   49.2270 N   0  0  0  0  0  0  0  0  0  0  0  0
  176.0160   21.0400   50.3420 C   0  0  0  0  0  0  0  0  0  0  0  0
  175.5710   19.6790   49.8270 C   0  0  0  0  0  0  0  0  0  0  0  0
  177.4080   21.9990   48.6740 C   0  0  0  0  0  0  0  0  0  0  0  0
  178.5320   22.4050   49.4170 C   0  0  0  0  0  0  0  0  0  0  0  0
  179.8240   22.3790   48.8720 C   0  0  0  0  0  0  0  0  0  0  0  0
  181.0020   22.8300   49.6440 C   0  0  0  0  0  0  0  0  0  0  0  0
  181.0610   24.2120   49.7800 O   0  0  0  0  0  0  0  0  0  0  0  0
  182.1040   24.7670   50.4750 C   0  0  0  0  0  0  0  0  0  0  0  0
  182.1150   26.1570   50.5980 C   0  0  0  0  0  0  0  0  0  0  0  0
  183.1510   26.7860   51.2940 C   0  0  0  0  0  0  0  0  0  0  0  0
  184.1750   26.0250   51.8630 C   0  0  0  0  0  0  0  0  0  0  0  0
  184.1610   24.6390   51.7370 C   0  0  0  0  0  0  0  0  0  0  0  0
  185.1940   23.9550   52.3190 O   0  0  0  0  0  0  0  0  0  0  0  0
  183.1240   24.0100   51.0430 C   0  0  0  0  0  0  0  0  0  0  0  0
  183.0710   22.5560   50.8880 C   0  0  0  0  0  0  0  0  0  0  0  0
  183.9380   21.8190   51.3550 O   0  0  0  0  0  0  0  0  0  0  0  0
  181.9260   21.9870   50.1410 C   0  0  0  0  0  0  0  0  0  0  0  0
  181.8940   20.6120   49.9900 O   0  0  0  0  0  0  0  0  0  0  0  0
  179.9830   21.9470   47.5500 C   0  0  0  0  0  0  0  0  0  0  0  0
  178.8810   21.5300   46.8000 C   0  0  0  0  0  0  0  0  0  0  0  0
  177.5930   21.5450   47.3520 C   0  0  0  0  0  0  0  0  0  0  0  0
  176.4250   21.0840   46.5240 C   0  0  0  0  0  0  0  0  0  0  0  0
  173.7330   23.4093   50.6161 H   0  0  0  0  0  0  0  0  0  0  0  0
  173.7265   24.3080   49.0608 H   0  0  0  0  0  0  0  0  0  0  0  0
  173.6781   22.5123   49.0608 H   0  0  0  0  0  0  0  0  0  0  0  0
  175.9626   24.0603   48.7755 H   0  0  0  0  0  0  0  0  0  0  0  0
  175.9739   23.6413   50.5376 H   0  0  0  0  0  0  0  0  0  0  0  0
  177.0049   20.9443   50.8141 H   0  0  0  0  0  0  0  0  0  0  0  0
  175.2826   21.4030   51.0770 H   0  0  0  0  0  0  0  0  0  0  0  0
  175.3547   19.0175   50.6788 H   0  0  0  0  0  0  0  0  0  0  0  0
  174.6646   19.7970   49.2150 H   0  0  0  0  0  0  0  0  0  0  0  0
  176.3720   19.2387   49.2150 H   0  0  0  0  0  0  0  0  0  0  0  0
  178.3937   22.7516   50.4518 H   0  0  0  0  0  0  0  0  0  0  0  0
  181.3099   26.7564   50.1481 H   0  0  0  0  0  0  0  0  0  0  0  0
  183.1601   27.8814   51.3938 H   0  0  0  0  0  0  0  0  0  0  0  0
  184.9910   26.5203   52.4097 H   0  0  0  0  0  0  0  0  0  0  0  0
  185.3660   24.0550   53.2360 H   0  0  0  0  0  0  0  0  0  0  0  0
  182.4020   20.0670   50.5570 H   0  0  0  0  0  0  0  0  0  0  0  0
  180.9855   21.9358   47.0975 H   0  0  0  0  0  0  0  0  0  0  0  0
  179.0256   21.1862   45.7652 H   0  0  0  0  0  0  0  0  0  0  0  0
  175.6092   20.7620   47.1880 H   0  0  0  0  0  0  0  0  0  0  0  0
  176.0761   21.9118   45.8892 H   0  0  0  0  0  0  0  0  0  0  0  0
  176.7355   20.2410   45.8892 H   0  0  0  0  0  0  0  0  0  0  0  0
  1  2  1  0
  2  3  1  0
  3  4  1  0
  4  5  1  0
  3  6  1  0
  6  7  2  0
  7  8  1  0
  8  9  1  0
  9 10  1  0
 10 11  1  0
 11 12  2  0
 12 13  1  0
 13 14  2  0
 14 15  1  0
 15 16  1  0
 15 17  2  0
 17 18  1  0
 18 19  2  0
 18 20  1  0
 20 21  1  0
  8 22  2  0
 22 23  1  0
 23 24  2  0
 24 25  1  0
 24  6  1  0
 20  9  2  0
 17 11  1  0
  1 26  1  0
  1 27  1  0
  1 28  1  0
  2 29  1  0
  2 30  1  0
  4 31  1  0
  4 32  1  0
  5 33  1  0
  5 34  1  0
  5 35  1  0
  7 36  1  0
 12 37  1  0
 13 38  1  0
 14 39  1  0
 16 40  1  0
 21 41  1  0
 22 42  1  0
 23 43  1  0
 25 44  1  0
 25 45  1  0
 25 46  1  0
M  END
>  <meeko>  (8) 
{"is_sidechain": [false], "free_energy": -6.436, "intermolecular_energy": -8.327, "internal_energy": -0.873}

$$$$
cand_054_out
     RDKit          3D

 46 48  0  0  0  0  0  0  0  0999 V2000
  170.8600   23.3900   53.5430 C   0  0  0  0  0  0  0  0  0  0  0  0
  171.4850   23.7720   52.2080 C   0  0  0  0  0  0  0  0  0  0  0  0
  172.5870   24.7400   52.3830 N   0  0  0  0  0  0  0  0  0  0  0  0
  172.5360   25.9050   51.4770 C   0  0  0  0  0  0  0  0  0  0  0  0
  171.4680   25.6950   50.4130 C   0  0  0  0  0  0  0  0  0  0  0  0
  173.8750   24.1430   52.3380 C   0  0  0  0  0  0  0  0  0  0  0  0
  174.4050   23.6030   51.1500 C   0  0  0  0  0  0  0  0  0  0  0  0
  175.6860   23.0330   51.1080 C   0  0  0  0  0  0  0  0  0  0  0  0
  176.2320   22.4430   49.8670 C   0  0  0  0  0  0  0  0  0  0  0  0
  175.7030   21.1880   49.5880 O   0  0  0  0  0  0  0  0  0  0  0  0
  176.1230   20.5250   48.4640 C   0  0  0  0  0  0  0  0  0  0  0  0
  175.5550   19.2760   48.2160 C   0  0  0  0  0  0  0  0  0  0  0  0
  175.9390   18.5470   47.0880 C   0  0  0  0  0  0  0  0  0  0  0  0
  176.8940   19.0680   46.2100 C   0  0  0  0  0  0  0  0  0  0  0  0
  177.4590   20.3150   46.4610 C   0  0  0  0  0  0  0  0  0  0  0  0
  178.3860   20.7650   45.5610 O   0  0  0  0  0  0  0  0  0  0  0  0
  177.0720   21.0440   47.5890 C   0  0  0  0  0  0  0  0  0  0  0  0
  177.6410   22.3580   47.8890 C   0  0  0  0  0  0  0  0  0  0  0  0
  178.4900   22.8810   47.1690 O   0  0  0  0  0  0  0  0  0  0  0  0
  177.1590   23.0530   49.1050 C   0  0  0  0  0  0  0  0  0  0  0  0
  177.7140   24.2880   49.3850 O   0  0  0  0  0  0  0  0  0  0  0  0
  176.4410   22.9960   52.2860 C   0  0  0  0  0  0  0  0  0  0  0  0
  175.9370   23.5360   53.4720 C   0  0  0  0  0  0  0  0  0  0  0  0
  174.6620   24.1160   53.5080 C   0  0  0  0  0  0  0  0  0  0  0  0
  174.1470   24.6970   54.7970 C   0  0  0  0  0  0  0  0  0  0  0  0
  171.4853   23.7722   54.3633 H   0  0  0  0  0  0  0  0  0  0  0  0
  169.8532   23.8273   53.6150 H   0  0  0  0  0  0  0  0  0  0  0  0
  170.7900   22.2946   53.6150 H   0  0  0  0  0  0  0  0  0  0  0  0
  171.8790   22.8654   51.7254 H   0  0  0  0  0  0  0  0  0  0  0  0
  170.7090   24.2415   51.5856 H   0  0  0  0  0  0  0  0  0  0  0  0
  172.2974   26.8077   52.0585 H   0  0  0  0  0  0  0  0  0  0  0  0
  173.5137   26.0225   50.9869 H   0  0  0  0  0  0  0  0  0  0  0  0
  170.4994   25.5045   50.8983 H   0  0  0  0  0  0  0  0  0  0  0  0
  171.3931   26.5956   49.7859 H   0  0  0  0  0  0  0  0  0  0  0  0
  171.7397   24.8331   49.7859 H   0  0  0  0  0  0  0  0  0  0  0  0
  173.7992   23.6289   50.2322 H   0  0  0  0  0  0  0  0  0  0  0  0
  174.8051   18.8651   48.9080 H   0  0  0  0  0  0  0  0  0  0  0  0
  175.4897   17.5625   46.8905 H   0  0  0  0  0  0  0  0  0  0  0  0
  177.1983   18.4936   45.3226 H   0  0  0  0  0  0  0  0  0  0  0  0
  179.2860   20.8420   45.8140 H   0  0  0  0  0  0  0  0  0  0  0  0
  177.7920   24.9310   48.7090 H   0  0  0  0  0  0  0  0  0  0  0  0
  177.4408   22.5374   52.2780 H   0  0  0  0  0  0  0  0  0  0  0  0
  176.5473   23.5055   54.3867 H   0  0  0  0  0  0  0  0  0  0  0  0
  174.6108   24.1738   55.6462 H   0  0  0  0  0  0  0  0  0  0  0  0
  174.3990   25.7667   54.8435 H   0  0  0  0  0  0  0  0  0  0  0  0
  173.0548   24.5752   54.8435 H   0  0  0  0  0  0  0  0  0  0  0  0
  1  2  1  0
  2  3  1  0
  3  4  1  0
  4  5  1  0
  3  6  1  0
  6  7  2  0
  7  8  1  0
  8  9  1  0
  9 10  1  0
 10 11  1  0
 11 12  2  0
 12 13  1  0
 13 14  2  0
 14 15  1  0
 15 16  1  0
 15 17  2  0
 17 18  1  0
 18 19  2  0
 18 20  1  0
 20 21  1  0
  8 22  2  0
 22 23  1  0
 23 24  2  0
 24 25  1  0
 24  6  1  0
 20  9  2  0
 17 11  1  0
  1 26  1  0
  1 27  1  0
  1 28  1  0
  2 29  1  0
  2 30  1  0
  4 31  1  0
  4 32  1  0
  5 33  1  0
  5 34  1  0
  5 35  1  0
  7 36  1  0
 12 37  1  0
 13 38  1  0
 14 39  1  0
 16 40  1  0
 21 41  1  0
 22 42  1  0
 23 43  1  0
 25 44  1  0
 25 45  1  0
 25 46  1  0
M  END
>  <meeko>  (9) 
{"is_sidechain": [false], "free_energy": -6.422, "intermolecular_energy": -8.274, "internal_energy": -0.908}

$$$$
