cand_017_out
     RDKit          3D

 38 40  0  0  0  0  0  0  0  0999 V2000
  178.8880   13.5870   45.0180 C   0  0  0  0  0  0  0  0  0  0  0  0
  180.3480   14.0150   45.0310 C   0  0  0  0  0  0  0  0  0  0  0  0
  180.5220   15.4490   44.5820 C   0  0  0  0  0  0  0  0  0  0  0  0
  180.0390   16.4720   45.4240 C   0  0  0  0  0  0  0  0  0  0  0  0
  180.1640   17.8270   45.0870 C   0  0  0  0  0  0  0  0  0  0  0  0
  179.6790   18.8990   45.9830 C   0  0  0  0  0  0  0  0  0  0  0  0
  178.2980   18.8870   46.1410 O   0  0  0  0  0  0  0  0  0  0  0  0
  177.7150   19.8300   46.9470 C   0  0  0  0  0  0  0  0  0  0  0  0
  176.3250   19.7920   47.0640 C   0  0  0  0  0  0  0  0  0  0  0  0
  175.6680   20.7230   47.8720 C   0  0  0  0  0  0  0  0  0  0  0  0
  176.4000   21.6920   48.5600 C   0  0  0  0  0  0  0  0  0  0  0  0
  177.7870   21.7280   48.4420 C   0  0  0  0  0  0  0  0  0  0  0  0
  178.4420   22.7030   49.1450 O   0  0  0  0  0  0  0  0  0  0  0  0
  178.4440   20.7960   47.6340 C   0  0  0  0  0  0  0  0  0  0  0  0
  179.8990   20.8000   47.4800 C   0  0  0  0  0  0  0  0  0  0  0  0
  180.6140   21.6160   48.0600 O   0  0  0  0  0  0  0  0  0  0  0  0
  180.4980   19.7740   46.5940 C   0  0  0  0  0  0  0  0  0  0  0  0
  181.8750   19.7780   46.4670 O   0  0  0  0  0  0  0  0  0  0  0  0
  180.8060   18.1560   43.8890 C   0  0  0  0  0  0  0  0  0  0  0  0
  181.2950   17.1560   43.0440 C   0  0  0  0  0  0  0  0  0  0  0  0
  181.1650   15.7970   43.3750 C   0  0  0  0  0  0  0  0  0  0  0  0
  181.6930   14.7570   42.4130 C   0  0  0  0  0  0  0  0  0  0  0  0
  183.0480   14.7930   42.2740 F   0  0  0  0  0  0  0  0  0  0  0  0
  181.1980   14.8850   41.1470 F   0  0  0  0  0  0  0  0  0  0  0  0
  178.5277   13.4814   46.0519 H   0  0  0  0  0  0  0  0  0  0  0  0
  178.2877   14.3470   44.4963 H   0  0  0  0  0  0  0  0  0  0  0  0
  178.7931   12.6232   44.4963 H   0  0  0  0  0  0  0  0  0  0  0  0
  180.7388   13.9133   46.0542 H   0  0  0  0  0  0  0  0  0  0  0  0
  180.8974   13.3702   44.3293 H   0  0  0  0  0  0  0  0  0  0  0  0
  179.5508   16.1992   46.3712 H   0  0  0  0  0  0  0  0  0  0  0  0
  175.7473   19.0298   46.5206 H   0  0  0  0  0  0  0  0  0  0  0  0
  174.5725   20.6924   47.9662 H   0  0  0  0  0  0  0  0  0  0  0  0
  175.8820   22.4262   49.1945 H   0  0  0  0  0  0  0  0  0  0  0  0
  178.8960   23.3840   48.6890 H   0  0  0  0  0  0  0  0  0  0  0  0
  182.2700   19.5340   45.6540 H   0  0  0  0  0  0  0  0  0  0  0  0
  180.9274   19.2128   43.6089 H   0  0  0  0  0  0  0  0  0  0  0  0
  181.7904   17.4380   42.1032 H   0  0  0  0  0  0  0  0  0  0  0  0
  181.3629   13.8134   42.8719 H   0  0  0  0  0  0  0  0  0  0  0  0
  1  2  1  0
  2  3  1  0
  3  4  2  0
  4  5  1  0
  5  6  1  0
  6  7  1  0
  7  8  1  0
  8  9  2  0
  9 10  1  0
 10 11  2  0
 11 12  1  0
 12 13  1  0
 12 14  2  0
 14 15  1  0
 15 16  2  0
 15 17  1  0
 17 18  1  0
  5 19  2  0
 19 20  1  0
 20 21  2  0
 21 22  1  0
 22 23  1  0
 22 24  1  0
 21  3  1  0
 17  6  2  0
 14  8  1  0
  1 25  1  0
  1 26  1  0
  1 27  1  0
  2 28  1  0
  2 29  1  0
  4 30  1  0
  9 31  1  0
 10 32  1  0
 11 33  1  0
 13 34  1  0
 18 35  1  0
 19 36  1  0
 20 37  1  0
 22 38  1  0
M  END
>  <meeko>  (1) 
{"is_sidechain": [false], "free_energy": -7.737, "intermolecular_energy": -9.547, "internal_energy": -0.535}

$$$$
cand_017_out
     RDKit          3D

 38 40  0  0  0  0  0  0  0  0999 V2000
  175.5300   18.3970   46.9840 C   0  0  0  0  0  0  0  0  0  0  0  0
  176.7810   18.8550   46.2480 C   0  0  0  0  0  0  0  0  0  0  0  0
  177.5550   19.8900   47.0350 C   0  0  0  0  0  0  0  0  0  0  0  0
  176.8720   20.6060   48.0400 C   0  0  0  0  0  0  0  0  0  0  0  0
  177.5140   21.5780   48.8190 C   0  0  0  0  0  0  0  0  0  0  0  0
  176.8040   22.3110   49.8890 C   0  0  0  0  0  0  0  0  0  0  0  0
  175.8040   23.1430   49.4010 O   0  0  0  0  0  0  0  0  0  0  0  0
  175.0650   23.8830   50.2880 C   0  0  0  0  0  0  0  0  0  0  0  0
  174.0820   24.7180   49.7540 C   0  0  0  0  0  0  0  0  0  0  0  0
  173.2930   25.4970   50.6030 C   0  0  0  0  0  0  0  0  0  0  0  0
  173.4870   25.4420   51.9840 C   0  0  0  0  0  0  0  0  0  0  0  0
  174.4680   24.6090   52.5150 C   0  0  0  0  0  0  0  0  0  0  0  0
  174.6040   24.6030   53.8770 O   0  0  0  0  0  0  0  0  0  0  0  0
  175.2580   23.8300   51.6660 C   0  0  0  0  0  0  0  0  0  0  0  0
  176.3000   22.9410   52.1810 C   0  0  0  0  0  0  0  0  0  0  0  0
  176.5270   22.8320   53.3850 O   0  0  0  0  0  0  0  0  0  0  0  0
  177.0870   22.1640   51.1960 C   0  0  0  0  0  0  0  0  0  0  0  0
  178.0610   21.3180   51.6950 O   0  0  0  0  0  0  0  0  0  0  0  0
  178.8730   21.8180   48.5940 C   0  0  0  0  0  0  0  0  0  0  0  0
  179.5670   21.1150   47.6060 C   0  0  0  0  0  0  0  0  0  0  0  0
  178.9260   20.1440   46.8170 C   0  0  0  0  0  0  0  0  0  0  0  0
  179.7200   19.4300   45.7480 C   0  0  0  0  0  0  0  0  0  0  0  0
  180.8780   18.8840   46.2130 F   0  0  0  0  0  0  0  0  0  0  0  0
  180.0930   20.2400   44.7140 F   0  0  0  0  0  0  0  0  0  0  0  0
  175.6996   18.4591   48.0691 H   0  0  0  0  0  0  0  0  0  0  0  0
  174.6844   19.0439   46.7074 H   0  0  0  0  0  0  0  0  0  0  0  0
  175.3019   17.3571   46.7074 H   0  0  0  0  0  0  0  0  0  0  0  0
  177.4294   17.9837   46.0735 H   0  0  0  0  0  0  0  0  0  0  0  0
  176.4677   19.3144   45.2989 H   0  0  0  0  0  0  0  0  0  0  0  0
  175.8069   20.3958   48.2171 H   0  0  0  0  0  0  0  0  0  0  0  0
  173.9290   24.7623   48.6656 H   0  0  0  0  0  0  0  0  0  0  0  0
  172.5178   26.1547   50.1828 H   0  0  0  0  0  0  0  0  0  0  0  0
  172.8655   26.0562   52.6522 H   0  0  0  0  0  0  0  0  0  0  0  0
  174.9880   25.3380   54.3120 H   0  0  0  0  0  0  0  0  0  0  0  0
  178.2630   21.3250   52.6100 H   0  0  0  0  0  0  0  0  0  0  0  0
  179.4011   22.5680   49.2011 H   0  0  0  0  0  0  0  0  0  0  0  0
  180.6343   21.3251   47.4425 H   0  0  0  0  0  0  0  0  0  0  0  0
  179.0208   18.6523   45.4069 H   0  0  0  0  0  0  0  0  0  0  0  0
  1  2  1  0
  2  3  1  0
  3  4  2  0
  4  5  1  0
  5  6  1  0
  6  7  1  0
  7  8  1  0
  8  9  2  0
  9 10  1  0
 10 11  2  0
 11 12  1  0
 12 13  1  0
 12 14  2  0
 14 15  1  0
 15 16  2  0
 15 17  1  0
 17 18  1  0
  5 19  2  0
 19 20  1  0
 20 21  2  0
 21 22  1  0
 22 23  1  0
 22 24  1  0
 21  3  1  0
 17  6  2  0
 14  8  1  0
  1 25  1  0
  1 26  1  0
  1 27  1  0
  2 28  1  0
  2 29  1  0
  4 30  1  0
  9 31  1  0
 10 32  1  0
 11 33  1  0
 13 34  1  0
 18 35  1  0
 19 36  1  0
 20 37  1  0
 22 38  1  0
M  END
>  <meeko>  (2) 
{"is_sidechain": [false], "free_energy": -7.541, "intermolecular_energy": -9.309, "internal_energy": -0.53}

$$$$
cand_017_out
     RDKit          3D

 38 40  0  0  0  0  0  0  0  0999 V2000
  178.8730   13.8140   45.2610 C   0  0  0  0  0  0  0  0  0  0  0  0
  180.3110   13.9940   44.7940 C   0  0  0  0  0  0  0  0  0  0  0  0
  180.5550   15.3790   44.2340 C   0  0  0  0  0  0  0  0  0  0  0  0
  180.3610   16.4840   45.0880 C   0  0  0  0  0  0  0  0  0  0  0  0
  180.5710   17.8000   44.6530 C   0  0  0  0  0  0  0  0  0  0  0  0
  180.3910   18.9560   45.5560 C   0  0  0  0  0  0  0  0  0  0  0  0
  181.5250   19.7550   45.6420 O   0  0  0  0  0  0  0  0  0  0  0  0
  181.4940   20.8640   46.4480 C   0  0  0  0  0  0  0  0  0  0  0  0
  182.6590   21.6290   46.5180 C   0  0  0  0  0  0  0  0  0  0  0  0
  182.6940   22.7730   47.3200 C   0  0  0  0  0  0  0  0  0  0  0  0
  181.5670   23.1500   48.0500 C   0  0  0  0  0  0  0  0  0  0  0  0
  180.4050   22.3850   47.9790 C   0  0  0  0  0  0  0  0  0  0  0  0
  179.3370   22.8130   48.7200 O   0  0  0  0  0  0  0  0  0  0  0  0
  180.3700   21.2410   47.1780 C   0  0  0  0  0  0  0  0  0  0  0  0
  179.1710   20.4080   47.0750 C   0  0  0  0  0  0  0  0  0  0  0  0
  178.1360   20.6790   47.6820 O   0  0  0  0  0  0  0  0  0  0  0  0
  179.2400   19.2120   46.2040 C   0  0  0  0  0  0  0  0  0  0  0  0
  178.0970   18.4400   46.1040 O   0  0  0  0  0  0  0  0  0  0  0  0
  181.0020   18.0020   43.3380 C   0  0  0  0  0  0  0  0  0  0  0  0
  181.2020   16.9190   42.4780 C   0  0  0  0  0  0  0  0  0  0  0  0
  180.9880   15.5990   42.9090 C   0  0  0  0  0  0  0  0  0  0  0  0
  181.1990   14.4670   41.9300 C   0  0  0  0  0  0  0  0  0  0  0  0
  182.5110   14.1370   41.7660 F   0  0  0  0  0  0  0  0  0  0  0  0
  180.7370   14.7390   40.6740 F   0  0  0  0  0  0  0  0  0  0  0  0
  178.8423   13.8102   46.3606 H   0  0  0  0  0  0  0  0  0  0  0  0
  178.2573   14.6421   44.8799 H   0  0  0  0  0  0  0  0  0  0  0  0
  178.4804   12.8597   44.8799 H   0  0  0  0  0  0  0  0  0  0  0  0
  180.9849   13.8323   45.6482 H   0  0  0  0  0  0  0  0  0  0  0  0
  180.5025   13.2646   43.9932 H   0  0  0  0  0  0  0  0  0  0  0  0
  180.0359   16.3086   46.1241 H   0  0  0  0  0  0  0  0  0  0  0  0
  183.5484   21.3321   45.9428 H   0  0  0  0  0  0  0  0  0  0  0  0
  183.6117   23.3769   47.3756 H   0  0  0  0  0  0  0  0  0  0  0  0
  181.5957   24.0505   48.6811 H   0  0  0  0  0  0  0  0  0  0  0  0
  179.0640   23.7070   48.6750 H   0  0  0  0  0  0  0  0  0  0  0  0
  177.3500   18.7660   45.6430 H   0  0  0  0  0  0  0  0  0  0  0  0
  181.1856   19.0246   42.9767 H   0  0  0  0  0  0  0  0  0  0  0  0
  181.5328   17.1032   41.4452 H   0  0  0  0  0  0  0  0  0  0  0  0
  180.6329   13.6426   42.3881 H   0  0  0  0  0  0  0  0  0  0  0  0
  1  2  1  0
  2  3  1  0
  3  4  2  0
  4  5  1  0
  5  6  1  0
  6  7  1  0
  7  8  1  0
  8  9  2  0
  9 10  1  0
 10 11  2  0
 11 12  1  0
 12 13  1  0
 12 14  2  0
 14 15  1  0
 15 16  2  0
 15 17  1  0
 17 18  1  0
  5 19  2  0
 19 20  1  0
 20 21  2  0
 21 22  1  0
 22 23  1  0
 22 24  1  0
 21  3  1  0
 17  6  2  0
 14  8  1  0
  1 25  1  0
  1 26  1  0
  1 27  1  0
  2 28  1  0
  2 29  1  0
  4 30  1  0
  9 31  1  0
 10 32  1  0
 11 33  1  0
 13 34  1  0
 18 35  1  0
 19 36  1  0
 20 37  1  0
 22 38  1  0
M  END
>  <meeko>  (3) 
{"is_sidechain": [false], "free_energy": -7.456, "intermolecular_energy": -9.258, "internal_energy": -0.476}

$$$$
cand_017_out
     RDKit          3D

 38 40  0  0  0  0  0  0  0  0999 V2000
  175.0680   18.6130   46.9000 C   0  0  0  0  0  0  0  0  0  0  0  0
  175.9790   18.9440   48.0740 C   0  0  0  0  0  0  0  0  0  0  0  0
  176.0490   20.4330   48.3350 C   0  0  0  0  0  0  0  0  0  0  0  0
  175.2150   20.9710   49.3370 C   0  0  0  0  0  0  0  0  0  0  0  0
  175.2210   22.3380   49.6470 C   0  0  0  0  0  0  0  0  0  0  0  0
  174.3650   22.8970   50.7150 C   0  0  0  0  0  0  0  0  0  0  0  0
  175.0800   23.2480   51.8530 O   0  0  0  0  0  0  0  0  0  0  0  0
  174.4060   23.7800   52.9220 C   0  0  0  0  0  0  0  0  0  0  0  0
  175.1610   24.1030   54.0500 C   0  0  0  0  0  0  0  0  0  0  0  0
  174.5350   24.6510   55.1730 C   0  0  0  0  0  0  0  0  0  0  0  0
  173.1580   24.8740   55.1680 C   0  0  0  0  0  0  0  0  0  0  0  0
  172.4070   24.5510   54.0410 C   0  0  0  0  0  0  0  0  0  0  0  0
  171.0620   24.7970   54.1030 O   0  0  0  0  0  0  0  0  0  0  0  0
  173.0320   24.0030   52.9180 C   0  0  0  0  0  0  0  0  0  0  0  0
  172.2810   23.6480   51.7130 C   0  0  0  0  0  0  0  0  0  0  0  0
  171.0660   23.8210   51.6280 O   0  0  0  0  0  0  0  0  0  0  0  0
  173.0360   23.0660   50.5800 C   0  0  0  0  0  0  0  0  0  0  0  0
  172.3180   22.7460   49.4420 O   0  0  0  0  0  0  0  0  0  0  0  0
  176.0970   23.1730   48.9470 C   0  0  0  0  0  0  0  0  0  0  0  0
  176.9340   22.6570   47.9540 C   0  0  0  0  0  0  0  0  0  0  0  0
  176.9260   21.2880   47.6350 C   0  0  0  0  0  0  0  0  0  0  0  0
  177.8360   20.7880   46.5360 C   0  0  0  0  0  0  0  0  0  0  0  0
  178.8260   21.6680   46.2180 F   0  0  0  0  0  0  0  0  0  0  0  0
  177.1860   20.5380   45.3630 F   0  0  0  0  0  0  0  0  0  0  0  0
  174.0969   18.2602   47.2775 H   0  0  0  0  0  0  0  0  0  0  0  0
  174.9177   19.5140   46.2871 H   0  0  0  0  0  0  0  0  0  0  0  0
  175.5311   17.8257   46.2871 H   0  0  0  0  0  0  0  0  0  0  0  0
  175.5939   18.4433   48.9746 H   0  0  0  0  0  0  0  0  0  0  0  0
  176.9923   18.5944   47.8269 H   0  0  0  0  0  0  0  0  0  0  0  0
  174.5416   20.2998   49.8902 H   0  0  0  0  0  0  0  0  0  0  0  0
  176.2468   23.9267   54.0554 H   0  0  0  0  0  0  0  0  0  0  0  0
  175.1293   24.9070   56.0625 H   0  0  0  0  0  0  0  0  0  0  0  0
  172.6663   25.3043   56.0529 H   0  0  0  0  0  0  0  0  0  0  0  0
  170.7160   25.3400   54.7830 H   0  0  0  0  0  0  0  0  0  0  0  0
  171.5140   23.1900   49.2560 H   0  0  0  0  0  0  0  0  0  0  0  0
  176.1277   24.2475   49.1803 H   0  0  0  0  0  0  0  0  0  0  0  0
  177.6110   23.3340   47.4125 H   0  0  0  0  0  0  0  0  0  0  0  0
  178.2466   19.8615   46.9639 H   0  0  0  0  0  0  0  0  0  0  0  0
  1  2  1  0
  2  3  1  0
  3  4  2  0
  4  5  1  0
  5  6  1  0
  6  7  1  0
  7  8  1  0
  8  9  2  0
  9 10  1  0
 10 11  2  0
 11 12  1  0
 12 13  1  0
 12 14  2  0
 14 15  1  0
 15 16  2  0
 15 17  1  0
 17 18  1  0
  5 19  2  0
 19 20  1  0
 20 21  2  0
 21 22  1  0
 22 23  1  0
 22 24  1  0
 21  3  1  0
 17  6  2  0
 14  8  1  0
  1 25  1  0
  1 26  1  0
  1 27  1  0
  2 28  1  0
  2 29  1  0
  4 30  1  0
  9 31  1  0
 10 32  1  0
 11 33  1  0
 13 34  1  0
 18 35  1  0
 19 36  1  0
 20 37  1  0
 22 38  1  0
M  END
>  <meeko>  (4) 
{"is_sidechain": [false], "free_energy": -7.452, "intermolecular_energy": -9.128, "internal_energy": -0.601}

$$$$
cand_017_out
     RDKit          3D

 38 40  0  0  0  0  0  0  0  0999 V2000
  174.0750   26.6410   51.7380 C   0  0  0  0  0  0  0  0  0  0  0  0
  174.2240   26.4560   50.2340 C   0  0  0  0  0  0  0  0  0  0  0  0
  174.4700   25.0090   49.8630 C   0  0  0  0  0  0  0  0  0  0  0  0
  175.7920   24.5230   49.9310 C   0  0  0  0  0  0  0  0  0  0  0  0
  176.1070   23.1950   49.6100 C   0  0  0  0  0  0  0  0  0  0  0  0
  177.4890   22.6790   49.7050 C   0  0  0  0  0  0  0  0  0  0  0  0
  177.9060   22.0350   48.5460 O   0  0  0  0  0  0  0  0  0  0  0  0
  179.1710   21.5080   48.4990 C   0  0  0  0  0  0  0  0  0  0  0  0
  179.5420   20.8550   47.3230 C   0  0  0  0  0  0  0  0  0  0  0  0
  180.8180   20.2970   47.2080 C   0  0  0  0  0  0  0  0  0  0  0  0
  181.7200   20.3910   48.2690 C   0  0  0  0  0  0  0  0  0  0  0  0
  181.3480   21.0430   49.4420 C   0  0  0  0  0  0  0  0  0  0  0  0
  182.2810   21.0990   50.4410 O   0  0  0  0  0  0  0  0  0  0  0  0
  180.0720   21.6010   49.5560 C   0  0  0  0  0  0  0  0  0  0  0  0
  179.6380   22.2930   50.7710 C   0  0  0  0  0  0  0  0  0  0  0  0
  180.3780   22.4240   51.7450 O   0  0  0  0  0  0  0  0  0  0  0  0
  178.2630   22.8420   50.7940 C   0  0  0  0  0  0  0  0  0  0  0  0
  177.8690   23.5060   51.9410 O   0  0  0  0  0  0  0  0  0  0  0  0
  175.0680   22.3390   49.2340 C   0  0  0  0  0  0  0  0  0  0  0  0
  173.7510   22.8030   49.1650 C   0  0  0  0  0  0  0  0  0  0  0  0
  173.4320   24.1350   49.4800 C   0  0  0  0  0  0  0  0  0  0  0  0
  171.9940   24.5880   49.3670 C   0  0  0  0  0  0  0  0  0  0  0  0
  171.2970   24.4570   50.5300 F   0  0  0  0  0  0  0  0  0  0  0  0
  171.2750   23.8930   48.4370 F   0  0  0  0  0  0  0  0  0  0  0  0
  174.6817   25.8877   52.2620 H   0  0  0  0  0  0  0  0  0  0  0  0
  174.4173   27.6478   52.0193 H   0  0  0  0  0  0  0  0  0  0  0  0
  173.0184   26.5211   52.0193 H   0  0  0  0  0  0  0  0  0  0  0  0
  173.3018   26.7973   49.7410 H   0  0  0  0  0  0  0  0  0  0  0  0
  175.0927   27.0443   49.9034 H   0  0  0  0  0  0  0  0  0  0  0  0
  176.5974   25.2037   50.2441 H   0  0  0  0  0  0  0  0  0  0  0  0
  178.8308   20.7795   46.4873 H   0  0  0  0  0  0  0  0  0  0  0  0
  181.1117   19.7833   46.2807 H   0  0  0  0  0  0  0  0  0  0  0  0
  182.7239   19.9504   48.1787 H   0  0  0  0  0  0  0  0  0  0  0  0
  182.0080   21.1910   51.3320 H   0  0  0  0  0  0  0  0  0  0  0  0
  178.1840   23.2220   52.7770 H   0  0  0  0  0  0  0  0  0  0  0  0
  175.2888   21.2894   48.9899 H   0  0  0  0  0  0  0  0  0  0  0  0
  172.9505   22.1135   48.8588 H   0  0  0  0  0  0  0  0  0  0  0  0
  172.0957   25.6445   49.0780 H   0  0  0  0  0  0  0  0  0  0  0  0
  1  2  1  0
  2  3  1  0
  3  4  2  0
  4  5  1  0
  5  6  1  0
  6  7  1  0
  7  8  1  0
  8  9  2  0
  9 10  1  0
 10 11  2  0
 11 12  1  0
 12 13  1  0
 12 14  2  0
 14 15  1  0
 15 16  2  0
 15 17  1  0
 17 18  1  0
  5 19  2  0
 19 20  1  0
 20 21  2  0
 21 22  1  0
 22 23  1  0
 22 24  1  0
 21  3  1  0
 17  6  2  0
 14  8  1  0
  1 25  1  0
  1 26  1  0
  1 27  1  0
  2 28  1  0
  2 29  1  0
  4 30  1  0
  9 31  1  0
 10 32  1  0
 11 33  1  0
 13 34  1  0
 18 35  1  0
 19 36  1  0
 20 37  1  0
 22 38  1  0
M  END
>  <meeko>  (5) 
{"is_sidechain": [false], "free_energy": -7.329, "intermolecular_energy": -9.12, "internal_energy": -0.458}

$$$$
cand_017_out
     RDKit          3D

 38 40  0  0  0  0  0  0  0  0999 V2000
  180.9300   18.4490   44.7610 C   0  0  0  0  0  0  0  0  0  0  0  0
  179.7990   18.5170   45.7780 C   0  0  0  0  0  0  0  0  0  0  0  0
  179.7550   19.8530   46.4880 C   0  0  0  0  0  0  0  0  0  0  0  0
  180.9580   20.3620   47.0190 C   0  0  0  0  0  0  0  0  0  0  0  0
  181.0080   21.5930   47.6860 C   0  0  0  0  0  0  0  0  0  0  0  0
  182.2740   22.1370   48.2210 C   0  0  0  0  0  0  0  0  0  0  0  0
  182.9360   22.9560   47.3140 O   0  0  0  0  0  0  0  0  0  0  0  0
  184.1270   23.5280   47.6840 C   0  0  0  0  0  0  0  0  0  0  0  0
  184.7660   24.3300   46.7370 C   0  0  0  0  0  0  0  0  0  0  0  0
  185.9810   24.9430   47.0490 C   0  0  0  0  0  0  0  0  0  0  0  0
  186.5570   24.7540   48.3070 C   0  0  0  0  0  0  0  0  0  0  0  0
  185.9180   23.9540   49.2500 C   0  0  0  0  0  0  0  0  0  0  0  0
  186.5370   23.8130   50.4620 O   0  0  0  0  0  0  0  0  0  0  0  0
  184.7020   23.3400   48.9370 C   0  0  0  0  0  0  0  0  0  0  0  0
  183.9980   22.4900   49.8980 C   0  0  0  0  0  0  0  0  0  0  0  0
  184.4370   22.2810   51.0280 O   0  0  0  0  0  0  0  0  0  0  0  0
  182.7200   21.8800   49.4650 C   0  0  0  0  0  0  0  0  0  0  0  0
  182.0560   21.0890   50.3850 O   0  0  0  0  0  0  0  0  0  0  0  0
  179.8270   22.3330   47.8030 C   0  0  0  0  0  0  0  0  0  0  0  0
  178.6260   21.8460   47.2790 C   0  0  0  0  0  0  0  0  0  0  0  0
  178.5710   20.6090   46.6150 C   0  0  0  0  0  0  0  0  0  0  0  0
  177.2400   20.1220   46.0880 C   0  0  0  0  0  0  0  0  0  0  0  0
  176.2730   21.0820   46.1020 F   0  0  0  0  0  0  0  0  0  0  0  0
  176.7220   19.0790   46.8000 F   0  0  0  0  0  0  0  0  0  0  0  0
  181.8939   18.3910   45.2879 H   0  0  0  0  0  0  0  0  0  0  0  0
  180.8027   17.5569   44.1302 H   0  0  0  0  0  0  0  0  0  0  0  0
  180.9105   19.3499   44.1302 H   0  0  0  0  0  0  0  0  0  0  0  0
  178.8430   18.3599   45.2571 H   0  0  0  0  0  0  0  0  0  0  0  0
  179.9734   17.7363   46.5331 H   0  0  0  0  0  0  0  0  0  0  0  0
  181.8824   19.7766   46.9065 H   0  0  0  0  0  0  0  0  0  0  0  0
  184.3128   24.4789   45.7458 H   0  0  0  0  0  0  0  0  0  0  0  0
  186.4849   25.5754   46.3032 H   0  0  0  0  0  0  0  0  0  0  0  0
  187.5145   25.2367   48.5524 H   0  0  0  0  0  0  0  0  0  0  0  0
  186.5630   22.9750   50.8800 H   0  0  0  0  0  0  0  0  0  0  0  0
  181.7330   20.2470   50.1320 H   0  0  0  0  0  0  0  0  0  0  0  0
  179.8433   23.3078   48.3124 H   0  0  0  0  0  0  0  0  0  0  0  0
  177.7078   22.4418   47.3884 H   0  0  0  0  0  0  0  0  0  0  0  0
  177.4839   19.8156   45.0601 H   0  0  0  0  0  0  0  0  0  0  0  0
  1  2  1  0
  2  3  1  0
  3  4  2  0
  4  5  1  0
  5  6  1  0
  6  7  1  0
  7  8  1  0
  8  9  2  0
  9 10  1  0
 10 11  2  0
 11 12  1  0
 12 13  1  0
 12 14  2  0
 14 15  1  0
 15 16  2  0
 15 17  1  0
 17 18  1  0
  5 19  2  0
 19 20  1  0
 20 21  2  0
 21 22  1  0
 22 23  1  0
 22 24  1  0
 21  3  1  0
 17  6  2  0
 14  8  1  0
  1 25  1  0
  1 26  1  0
  1 27  1  0
  2 28  1  0
  2 29  1  0
  4 30  1  0
  9 31  1  0
 10 32  1  0
 11 33  1  0
 13 34  1  0
 18 35  1  0
 19 36  1  0
 20 37  1  0
 22 38  1  0
M  END
>  <meeko>  (6) 
{"is_sidechain": [false], "free_energy": -7.323, "intermolecular_energy": -8.906, "internal_energy": -0.664}

$$$$
cand_017_out
     RDKit          3D

 38 40  0  0  0  0  0  0  0  0999 V2000
  179.7780   20.5800   47.0390 C   0  0  0  0  0  0  0  0  0  0  0  0
  178.4700   21.0700   46.4320 C   0  0  0  0  0  0  0  0  0  0  0  0
  177.3070   20.9050   47.3850 C   0  0  0  0  0  0  0  0  0  0  0  0
  177.1730   21.8350   48.4370 C   0  0  0  0  0  0  0  0  0  0  0  0
  176.1220   21.7590   49.3610 C   0  0  0  0  0  0  0  0  0  0  0  0
  175.9690   22.7490   50.4480 C   0  0  0  0  0  0  0  0  0  0  0  0
  175.4610   23.9640   50.0050 O   0  0  0  0  0  0  0  0  0  0  0  0
  175.2700   24.9730   50.9130 C   0  0  0  0  0  0  0  0  0  0  0  0
  174.7740   26.1820   50.4220 C   0  0  0  0  0  0  0  0  0  0  0  0
  174.5540   27.2510   51.2950 C   0  0  0  0  0  0  0  0  0  0  0  0
  174.8300   27.1100   52.6560 C   0  0  0  0  0  0  0  0  0  0  0  0
  175.3240   25.9040   53.1430 C   0  0  0  0  0  0  0  0  0  0  0  0
  175.5720   25.8350   54.4870 O   0  0  0  0  0  0  0  0  0  0  0  0
  175.5450   24.8350   52.2700 C   0  0  0  0  0  0  0  0  0  0  0  0
  176.0640   23.5500   52.7400 C   0  0  0  0  0  0  0  0  0  0  0  0
  176.3240   23.3460   53.9250 O   0  0  0  0  0  0  0  0  0  0  0  0
  176.2690   22.4840   51.7330 C   0  0  0  0  0  0  0  0  0  0  0  0
  176.7480   21.2700   52.1900 O   0  0  0  0  0  0  0  0  0  0  0  0
  175.1780   20.7380   49.2090 C   0  0  0  0  0  0  0  0  0  0  0  0
  175.2920   19.8100   48.1710 C   0  0  0  0  0  0  0  0  0  0  0  0
  176.3480   19.8790   47.2460 C   0  0  0  0  0  0  0  0  0  0  0  0
  176.4350   18.8350   46.1560 C   0  0  0  0  0  0  0  0  0  0  0  0
  175.4880   17.8610   46.2690 F   0  0  0  0  0  0  0  0  0  0  0  0
  177.6290   18.1740   46.1280 F   0  0  0  0  0  0  0  0  0  0  0  0
  179.7058   20.6070   48.1363 H   0  0  0  0  0  0  0  0  0  0  0  0
  179.9714   19.5485   46.7096 H   0  0  0  0  0  0  0  0  0  0  0  0
  180.6015   21.2306   46.7096 H   0  0  0  0  0  0  0  0  0  0  0  0
  178.5731   22.1354   46.1784 H   0  0  0  0  0  0  0  0  0  0  0  0
  178.2637   20.4663   45.5359 H   0  0  0  0  0  0  0  0  0  0  0  0
  177.9139   22.6422   48.5349 H   0  0  0  0  0  0  0  0  0  0  0  0
  174.5566   26.2931   49.3494 H   0  0  0  0  0  0  0  0  0  0  0  0
  174.1631   28.2041   50.9093 H   0  0  0  0  0  0  0  0  0  0  0  0
  174.6571   27.9516   53.3429 H   0  0  0  0  0  0  0  0  0  0  0  0
  176.1290   26.4690   54.8940 H   0  0  0  0  0  0  0  0  0  0  0  0
  177.4140   20.8190   51.7100 H   0  0  0  0  0  0  0  0  0  0  0  0
  174.3370   20.6650   49.9142 H   0  0  0  0  0  0  0  0  0  0  0  0
  174.5419   19.0110   48.0759 H   0  0  0  0  0  0  0  0  0  0  0  0
  176.2920   19.4286   45.2410 H   0  0  0  0  0  0  0  0  0  0  0  0
  1  2  1  0
  2  3  1  0
  3  4  2  0
  4  5  1  0
  5  6  1  0
  6  7  1  0
  7  8  1  0
  8  9  2  0
  9 10  1  0
 10 11  2  0
 11 12  1  0
 12 13  1  0
 12 14  2  0
 14 15  1  0
 15 16  2  0
 15 17  1  0
 17 18  1  0
  5 19  2  0
 19 20  1  0
 20 21  2  0
 21 22  1  0
 22 23  1  0
 22 24  1  0
 21  3  1  0
 17  6  2  0
 14  8  1  0
  1 25  1  0
  1 26  1  0
  1 27  1  0
  2 28  1  0
  2 29  1  0
  4 30  1  0
  9 31  1  0
 10 32  1  0
 11 33  1  0
 13 34  1  0
 18 35  1  0
 19 36  1  0
 20 37  1  0
 22 38  1  0
M  END
>  <meeko>  (7) 
{"is_sidechain": [false], "free_energy": -7.306, "intermolecular_energy": -8.982, "internal_energy": -0.567}

$$$$
cand_017_out
     RDKit          3D

 38 40  0  0  0  0  0  0  0  0999 V2000
  179.2910   23.8660   48.0830 C   0  0  0  0  0  0  0  0  0  0  0  0
  177.9680   23.7650   47.3370 C   0  0  0  0  0  0  0  0  0  0  0  0
  177.0170   22.7930   47.9990 C   0  0  0  0  0  0  0  0  0  0  0  0
  176.1900   23.2750   49.0350 C   0  0  0  0  0  0  0  0  0  0  0  0
  175.2760   22.4440   49.6980 C   0  0  0  0  0  0  0  0  0  0  0  0
  174.3930   22.9560   50.7670 C   0  0  0  0  0  0  0  0  0  0  0  0
  175.0930   23.3670   51.8950 O   0  0  0  0  0  0  0  0  0  0  0  0
  174.3930   23.8640   52.9650 C   0  0  0  0  0  0  0  0  0  0  0  0
  175.1340   24.2500   54.0830 C   0  0  0  0  0  0  0  0  0  0  0  0
  174.4820   24.7670   55.2060 C   0  0  0  0  0  0  0  0  0  0  0  0
  173.0930   24.8970   55.2100 C   0  0  0  0  0  0  0  0  0  0  0  0
  172.3560   24.5120   54.0930 C   0  0  0  0  0  0  0  0  0  0  0  0
  170.9980   24.6680   54.1650 O   0  0  0  0  0  0  0  0  0  0  0  0
  173.0070   23.9950   52.9710 C   0  0  0  0  0  0  0  0  0  0  0  0
  172.2720   23.5770   51.7770 C   0  0  0  0  0  0  0  0  0  0  0  0
  171.0470   23.6670   51.7010 O   0  0  0  0  0  0  0  0  0  0  0  0
  173.0550   23.0340   50.6430 C   0  0  0  0  0  0  0  0  0  0  0  0
  172.3510   22.6550   49.5150 O   0  0  0  0  0  0  0  0  0  0  0  0
  175.1820   21.1080   49.2960 C   0  0  0  0  0  0  0  0  0  0  0  0
  175.9900   20.6140   48.2680 C   0  0  0  0  0  0  0  0  0  0  0  0
  176.9120   21.4420   47.6060 C   0  0  0  0  0  0  0  0  0  0  0  0
  177.7760   20.8490   46.5170 C   0  0  0  0  0  0  0  0  0  0  0  0
  177.0910   20.0210   45.6790 F   0  0  0  0  0  0  0  0  0  0  0  0
  178.8140   20.1000   46.9920 F   0  0  0  0  0  0  0  0  0  0  0  0
  179.1029   23.8516   49.1667 H   0  0  0  0  0  0  0  0  0  0  0  0
  179.9314   23.0141   47.8107 H   0  0  0  0  0  0  0  0  0  0  0  0
  179.7947   24.8052   47.8107 H   0  0  0  0  0  0  0  0  0  0  0  0
  177.4983   24.7593   47.3108 H   0  0  0  0  0  0  0  0  0  0  0  0
  178.1777   23.3971   46.3218 H   0  0  0  0  0  0  0  0  0  0  0  0
  176.2642   24.3319   49.3308 H   0  0  0  0  0  0  0  0  0  0  0  0
  176.2292   24.1475   54.0803 H   0  0  0  0  0  0  0  0  0  0  0  0
  175.0648   25.0718   56.0878 H   0  0  0  0  0  0  0  0  0  0  0  0
  172.5805   25.3032   56.0945 H   0  0  0  0  0  0  0  0  0  0  0  0
  170.4660   24.4880   53.4160 H   0  0  0  0  0  0  0  0  0  0  0  0
  171.4360   22.4620   49.5770 H   0  0  0  0  0  0  0  0  0  0  0  0
  174.4648   20.4389   49.7939 H   0  0  0  0  0  0  0  0  0  0  0  0
  175.9025   19.5582   47.9720 H   0  0  0  0  0  0  0  0  0  0  0  0
  178.1427   21.7407   45.9875 H   0  0  0  0  0  0  0  0  0  0  0  0
  1  2  1  0
  2  3  1  0
  3  4  2  0
  4  5  1  0
  5  6  1  0
  6  7  1  0
  7  8  1  0
  8  9  2  0
  9 10  1  0
 10 11  2  0
 11 12  1  0
 12 13  1  0
 12 14  2  0
 14 15  1  0
 15 16  2  0
 15 17  1  0
 17 18  1  0
  5 19  2  0
 19 20  1  0
 20 21  2  0
 21 22  1  0
 22 23  1  0
 22 24  1  0
 21  3  1  0
 17  6  2  0
 14  8  1  0
  1 25  1  0
  1 26  1  0
  1 27  1  0
  2 28  1  0
  2 29  1  0
  4 30  1  0
  9 31  1  0
 10 32  1  0
 11 33  1  0
 13 34  1  0
 18 35  1  0
 19 36  1  0
 20 37  1  0
 22 38  1  0
M  END
>  <meeko>  (8) 
{"is_sidechain": [false], "free_energy": -7.296, "intermolecular_energy": -8.966, "internal_energy": -0.571}

$$$$
cand_017_out
     RDKit          3D

 38 40  0  0  0  0  0  0  0  0999 V2000
  182.4570   21.2200   48.2810 C   0  0  0  0  0  0  0  0  0  0  0  0
  181.4720   21.9240   47.3580 C   0  0  0  0  0  0  0  0  0  0  0  0
  180.0620   21.4040   47.5320 C   0  0  0  0  0  0  0  0  0  0  0  0
  179.2590   21.9870   48.5340 C   0  0  0  0  0  0  0  0  0  0  0  0
  177.9390   21.5700   48.7590 C   0  0  0  0  0  0  0  0  0  0  0  0
  177.0900   22.1990   49.7930 C   0  0  0  0  0  0  0  0  0  0  0  0
  175.9710   22.8290   49.2620 O   0  0  0  0  0  0  0  0  0  0  0  0
  175.0970   23.4540   50.1140 C   0  0  0  0  0  0  0  0  0  0  0  0
  173.9950   24.0880   49.5380 C   0  0  0  0  0  0  0  0  0  0  0  0
  173.0640   24.7430   50.3490 C   0  0  0  0  0  0  0  0  0  0  0  0
  173.2360   24.7630   51.7340 C   0  0  0  0  0  0  0  0  0  0  0  0
  174.3360   24.1300   52.3060 C   0  0  0  0  0  0  0  0  0  0  0  0
  174.4420   24.1880   53.6690 O   0  0  0  0  0  0  0  0  0  0  0  0
  175.2670   23.4760   51.4950 C   0  0  0  0  0  0  0  0  0  0  0  0
  176.4370   22.7990   52.0550 C   0  0  0  0  0  0  0  0  0  0  0  0
  176.6540   22.7660   53.2660 O   0  0  0  0  0  0  0  0  0  0  0  0
  177.3680   22.1420   51.1080 C   0  0  0  0  0  0  0  0  0  0  0  0
  178.4630   21.4940   51.6500 O   0  0  0  0  0  0  0  0  0  0  0  0
  177.4160   20.5600   47.9460 C   0  0  0  0  0  0  0  0  0  0  0  0
  178.1960   19.9730   46.9460 C   0  0  0  0  0  0  0  0  0  0  0  0
  179.5210   20.3840   46.7210 C   0  0  0  0  0  0  0  0  0  0  0  0
  180.3250   19.6990   45.6410 C   0  0  0  0  0  0  0  0  0  0  0  0
  180.1040   20.2140   44.3990 F   0  0  0  0  0  0  0  0  0  0  0  0
  180.0620   18.3640   45.5290 F   0  0  0  0  0  0  0  0  0  0  0  0
  182.1827   21.4161   49.3281 H   0  0  0  0  0  0  0  0  0  0  0  0
  182.4278   20.1369   48.0909 H   0  0  0  0  0  0  0  0  0  0  0  0
  183.4722   21.5983   48.0909 H   0  0  0  0  0  0  0  0  0  0  0  0
  181.4835   23.0010   47.5813 H   0  0  0  0  0  0  0  0  0  0  0  0
  181.7803   21.7298   46.3201 H   0  0  0  0  0  0  0  0  0  0  0  0
  179.6795   22.7908   49.1561 H   0  0  0  0  0  0  0  0  0  0  0  0
  173.8593   24.0722   48.4465 H   0  0  0  0  0  0  0  0  0  0  0  0
  172.1954   25.2429   49.8956 H   0  0  0  0  0  0  0  0  0  0  0  0
  172.5034   25.2782   52.3726 H   0  0  0  0  0  0  0  0  0  0  0  0
  174.0320   24.8850   54.1420 H   0  0  0  0  0  0  0  0  0  0  0  0
  178.3400   20.8230   52.2910 H   0  0  0  0  0  0  0  0  0  0  0  0
  176.3793   20.2237   48.0951 H   0  0  0  0  0  0  0  0  0  0  0  0
  177.7651   19.1748   46.3237 H   0  0  0  0  0  0  0  0  0  0  0  0
  181.3617   19.8701   45.9666 H   0  0  0  0  0  0  0  0  0  0  0  0
  1  2  1  0
  2  3  1  0
  3  4  2  0
  4  5  1  0
  5  6  1  0
  6  7  1  0
  7  8  1  0
  8  9  2  0
  9 10  1  0
 10 11  2  0
 11 12  1  0
 12 13  1  0
 12 14  2  0
 14 15  1  0
 15 16  2  0
 15 17  1  0
 17 18  1  0
  5 19  2  0
 19 20  1  0
 20 21  2  0
 21 22  1  0
 22 23  1  0
 22 24  1  0
 21  3  1  0
 17  6  2  0
 14  8  1  0
  1 25  1  0
  1 26  1  0
  1 27  1  0
  2 28  1  0
  2 29  1  0
  4 30  1  0
  9 31  1  0
 10 32  1  0
 11 33  1  0
 13 34  1  0
 18 35  1  0
 19 36  1  0
 20 37  1  0
 22 38  1  0
M  END
>  <meeko>  (9) 
{"is_sidechain": [false], "free_energy": -7.287, "intermolecular_energy": -8.972, "internal_energy": -0.553}

$$$$
