cand_050_out
     RDKit          3D

 38 40  0  0  0  0  0  0  0  0999 V2000
  181.4170   15.1840   41.4730 C   0  0  0  0  0  0  0  0  0  0  0  0
  182.0240   15.2290   42.8680 C   0  0  0  0  0  0  0  0  0  0  0  0
  181.3150   16.2220   43.7630 C   0  0  0  0  0  0  0  0  0  0  0  0
  181.6330   17.5840   43.6240 C   0  0  0  0  0  0  0  0  0  0  0  0
  181.0210   18.5510   44.4260 C   0  0  0  0  0  0  0  0  0  0  0  0
  180.0720   18.1870   45.3860 C   0  0  0  0  0  0  0  0  0  0  0  0
  179.4510   19.2240   46.2360 C   0  0  0  0  0  0  0  0  0  0  0  0
  178.0630   19.2380   46.1470 O   0  0  0  0  0  0  0  0  0  0  0  0
  177.3610   20.1550   46.8870 C   0  0  0  0  0  0  0  0  0  0  0  0
  175.9720   20.1450   46.7550 C   0  0  0  0  0  0  0  0  0  0  0  0
  175.1960   21.0500   47.4820 C   0  0  0  0  0  0  0  0  0  0  0  0
  175.8090   21.9650   48.3410 C   0  0  0  0  0  0  0  0  0  0  0  0
  177.1960   21.9740   48.4700 C   0  0  0  0  0  0  0  0  0  0  0  0
  177.7300   22.8960   49.3280 O   0  0  0  0  0  0  0  0  0  0  0  0
  177.9720   21.0680   47.7420 C   0  0  0  0  0  0  0  0  0  0  0  0
  179.4310   21.0440   47.8490 C   0  0  0  0  0  0  0  0  0  0  0  0
  180.0440   21.8110   48.5870 O   0  0  0  0  0  0  0  0  0  0  0  0
  180.1600   20.0500   47.0280 C   0  0  0  0  0  0  0  0  0  0  0  0
  181.5380   20.0240   47.1440 O   0  0  0  0  0  0  0  0  0  0  0  0
  179.7660   16.8270   45.5370 C   0  0  0  0  0  0  0  0  0  0  0  0
  180.3730   15.8330   44.7390 C   0  0  0  0  0  0  0  0  0  0  0  0
  179.9770   14.3870   44.9480 C   0  0  0  0  0  0  0  0  0  0  0  0
  179.6480   13.7370   43.7940 F   0  0  0  0  0  0  0  0  0  0  0  0
  178.8930   14.2460   45.7620 F   0  0  0  0  0  0  0  0  0  0  0  0
  180.9710   13.6480   45.5140 F   0  0  0  0  0  0  0  0  0  0  0  0
  180.3228   15.1029   41.5517 H   0  0  0  0  0  0  0  0  0  0  0  0
  181.6783   16.1040   40.9296 H   0  0  0  0  0  0  0  0  0  0  0  0
  181.8112   14.3126   40.9296 H   0  0  0  0  0  0  0  0  0  0  0  0
  181.9509   14.2286   43.3196 H   0  0  0  0  0  0  0  0  0  0  0  0
  183.0728   15.5466   42.7721 H   0  0  0  0  0  0  0  0  0  0  0  0
  182.3746   17.8933   42.8728 H   0  0  0  0  0  0  0  0  0  0  0  0
  181.2889   19.6105   44.3006 H   0  0  0  0  0  0  0  0  0  0  0  0
  175.4886   19.4247   46.0787 H   0  0  0  0  0  0  0  0  0  0  0  0
  174.1009   21.0423   47.3781 H   0  0  0  0  0  0  0  0  0  0  0  0
  175.1976   22.6772   48.9146 H   0  0  0  0  0  0  0  0  0  0  0  0
  177.7600   23.8000   49.0850 H   0  0  0  0  0  0  0  0  0  0  0  0
  182.0450   20.7630   46.8720 H   0  0  0  0  0  0  0  0  0  0  0  0
  179.0320   16.5259   46.2990 H   0  0  0  0  0  0  0  0  0  0  0  0
  1  2  1  0
  2  3  1  0
  3  4  2  0
  4  5  1  0
  5  6  2  0
  6  7  1  0
  7  8  1  0
  8  9  1  0
  9 10  2  0
 10 11  1  0
 11 12  2  0
 12 13  1  0
 13 14  1  0
 13 15  2  0
 15 16  1  0
 16 17  2  0
 16 18  1  0
 18 19  1  0
  6 20  1  0
 20 21  2  0
 21 22  1  0
 22 23  1  0
 22 24  1  0
 22 25  1  0
 21  3  1  0
 18  7  2  0
 15  9  1  0
  1 26  1  0
  1 27  1  0
  1 28  1  0
  2 29  1  0
  2 30  1  0
  4 31  1  0
  5 32  1  0
 10 33  1  0
 11 34  1  0
 12 35  1  0
 14 36  1  0
 19 37  1  0
 20 38  1  0
M  END
>  <meeko>  (1) 
{"is_sidechain": [false], "free_energy": -8.716, "intermolecular_energy": -10.754, "internal_energy": -0.481}

$$$$
cand_050_out
     RDKit          3D

 38 40  0  0  0  0  0  0  0  0999 V2000
  181.2500   14.8260   41.1140 C   0  0  0  0  0  0  0  0  0  0  0  0
  181.1530   14.4360   42.5820 C   0  0  0  0  0  0  0  0  0  0  0  0
  180.8870   15.6330   43.4700 C   0  0  0  0  0  0  0  0  0  0  0  0
  181.4680   16.8630   43.1170 C   0  0  0  0  0  0  0  0  0  0  0  0
  181.2690   18.0030   43.8980 C   0  0  0  0  0  0  0  0  0  0  0  0
  180.4820   17.9510   45.0520 C   0  0  0  0  0  0  0  0  0  0  0  0
  180.2990   19.1650   45.8750 C   0  0  0  0  0  0  0  0  0  0  0  0
  181.4760   19.8860   46.0450 O   0  0  0  0  0  0  0  0  0  0  0  0
  181.4450   21.0370   46.7900 C   0  0  0  0  0  0  0  0  0  0  0  0
  182.6510   21.7220   46.9480 C   0  0  0  0  0  0  0  0  0  0  0  0
  182.6900   22.9030   47.6930 C   0  0  0  0  0  0  0  0  0  0  0  0
  181.5240   23.3980   48.2790 C   0  0  0  0  0  0  0  0  0  0  0  0
  180.3220   22.7140   48.1200 C   0  0  0  0  0  0  0  0  0  0  0  0
  179.2180   23.2550   48.7210 O   0  0  0  0  0  0  0  0  0  0  0  0
  180.2830   21.5310   47.3750 C   0  0  0  0  0  0  0  0  0  0  0  0
  179.0420   20.7820   47.1840 C   0  0  0  0  0  0  0  0  0  0  0  0
  177.9730   21.1560   47.6620 O   0  0  0  0  0  0  0  0  0  0  0  0
  179.1100   19.5370   46.3840 C   0  0  0  0  0  0  0  0  0  0  0  0
  177.9310   18.8410   46.1970 O   0  0  0  0  0  0  0  0  0  0  0  0
  179.9140   16.7200   45.4150 C   0  0  0  0  0  0  0  0  0  0  0  0
  180.1030   15.5550   44.6420 C   0  0  0  0  0  0  0  0  0  0  0  0
  179.4430   14.2680   45.0880 C   0  0  0  0  0  0  0  0  0  0  0  0
  178.5910   13.7400   44.1620 F   0  0  0  0  0  0  0  0  0  0  0  0
  178.6980   14.4180   46.2190 F   0  0  0  0  0  0  0  0  0  0  0  0
  180.3450   13.2830   45.3590 F   0  0  0  0  0  0  0  0  0  0  0  0
  181.5148   15.8907   41.0342 H   0  0  0  0  0  0  0  0  0  0  0  0
  182.0242   14.2178   40.6234 H   0  0  0  0  0  0  0  0  0  0  0  0
  180.2811   14.6514   40.6234 H   0  0  0  0  0  0  0  0  0  0  0  0
  180.3324   13.7137   42.7042 H   0  0  0  0  0  0  0  0  0  0  0  0
  182.1164   13.9978   42.8817 H   0  0  0  0  0  0  0  0  0  0  0  0
  182.0891   16.9285   42.2115 H   0  0  0  0  0  0  0  0  0  0  0  0
  181.7371   18.9533   43.6017 H   0  0  0  0  0  0  0  0  0  0  0  0
  183.5700   21.3320   46.4861 H   0  0  0  0  0  0  0  0  0  0  0  0
  183.6401   23.4431   47.8179 H   0  0  0  0  0  0  0  0  0  0  0  0
  181.5548   24.3278   48.8660 H   0  0  0  0  0  0  0  0  0  0  0  0
  178.9060   22.9030   49.5310 H   0  0  0  0  0  0  0  0  0  0  0  0
  177.1450   19.3020   45.9780 H   0  0  0  0  0  0  0  0  0  0  0  0
  179.3039   16.6618   46.3285 H   0  0  0  0  0  0  0  0  0  0  0  0
  1  2  1  0
  2  3  1  0
  3  4  2  0
  4  5  1  0
  5  6  2  0
  6  7  1  0
  7  8  1  0
  8  9  1  0
  9 10  2  0
 10 11  1  0
 11 12  2  0
 12 13  1  0
 13 14  1  0
 13 15  2  0
 15 16  1  0
 16 17  2  0
 16 18  1  0
 18 19  1  0
  6 20  1  0
 20 21  2  0
 21 22  1  0
 22 23  1  0
 22 24  1  0
 22 25  1  0
 21  3  1  0
 18  7  2  0
 15  9  1  0
  1 26  1  0
  1 27  1  0
  1 28  1  0
  2 29  1  0
  2 30  1  0
  4 31  1  0
  5 32  1  0
 10 33  1  0
 11 34  1  0
 12 35  1  0
 14 36  1  0
 19 37  1  0
 20 38  1  0
M  END
>  <meeko>  (2) 
{"is_sidechain": [false], "free_energy": -7.999, "intermolecular_energy": -10.001, "internal_energy": -0.35}

$$$$
cand_050_out
     RDKit          3D

 38 40  0  0  0  0  0  0  0  0999 V2000
  176.8680   23.7440   48.4450 C   0  0  0  0  0  0  0  0  0  0  0  0
  176.7480   22.3420   49.0250 C   0  0  0  0  0  0  0  0  0  0  0  0
  177.4650   21.3140   48.1760 C   0  0  0  0  0  0  0  0  0  0  0  0
  178.8640   21.4000   48.0720 C   0  0  0  0  0  0  0  0  0  0  0  0
  179.5850   20.4880   47.2970 C   0  0  0  0  0  0  0  0  0  0  0  0
  178.9320   19.4620   46.6080 C   0  0  0  0  0  0  0  0  0  0  0  0
  179.7120   18.5190   45.7790 C   0  0  0  0  0  0  0  0  0  0  0  0
  179.2090   17.2230   45.8140 O   0  0  0  0  0  0  0  0  0  0  0  0
  179.8420   16.2470   45.0880 C   0  0  0  0  0  0  0  0  0  0  0  0
  179.3130   14.9580   45.1630 C   0  0  0  0  0  0  0  0  0  0  0  0
  179.9080   13.9180   44.4450 C   0  0  0  0  0  0  0  0  0  0  0  0
  181.0290   14.1670   43.6530 C   0  0  0  0  0  0  0  0  0  0  0  0
  181.5550   15.4540   43.5790 C   0  0  0  0  0  0  0  0  0  0  0  0
  182.6560   15.6270   42.7840 O   0  0  0  0  0  0  0  0  0  0  0  0
  180.9600   16.4950   44.2980 C   0  0  0  0  0  0  0  0  0  0  0  0
  181.4810   17.8610   44.2480 C   0  0  0  0  0  0  0  0  0  0  0  0
  182.4600   18.1620   43.5680 O   0  0  0  0  0  0  0  0  0  0  0  0
  180.7830   18.8890   45.0530 C   0  0  0  0  0  0  0  0  0  0  0  0
  181.2720   20.1810   44.9910 O   0  0  0  0  0  0  0  0  0  0  0  0
  177.5340   19.3850   46.6980 C   0  0  0  0  0  0  0  0  0  0  0  0
  176.7850   20.2970   47.4720 C   0  0  0  0  0  0  0  0  0  0  0  0
  175.2810   20.1380   47.5350 C   0  0  0  0  0  0  0  0  0  0  0  0
  174.8010   19.9680   48.8010 F   0  0  0  0  0  0  0  0  0  0  0  0
  174.8310   19.0610   46.8320 F   0  0  0  0  0  0  0  0  0  0  0  0
  174.6190   21.2170   47.0340 F   0  0  0  0  0  0  0  0  0  0  0  0
  176.9306   24.4755   49.2641 H   0  0  0  0  0  0  0  0  0  0  0  0
  177.7749   23.8083   47.8259 H   0  0  0  0  0  0  0  0  0  0  0  0
  175.9852   23.9615   47.8259 H   0  0  0  0  0  0  0  0  0  0  0  0
  177.1854   22.3365   50.0343 H   0  0  0  0  0  0  0  0  0  0  0  0
  175.6811   22.0757   49.0524 H   0  0  0  0  0  0  0  0  0  0  0  0
  179.3992   22.1972   48.6087 H   0  0  0  0  0  0  0  0  0  0  0  0
  180.6791   20.5785   47.2283 H   0  0  0  0  0  0  0  0  0  0  0  0
  178.4286   14.7611   45.7867 H   0  0  0  0  0  0  0  0  0  0  0  0
  179.4921   12.9014   44.5042 H   0  0  0  0  0  0  0  0  0  0  0  0
  181.4968   13.3476   43.0876 H   0  0  0  0  0  0  0  0  0  0  0  0
  183.5130   15.6090   43.1600 H   0  0  0  0  0  0  0  0  0  0  0  0
  181.5090   20.6300   45.7780 H   0  0  0  0  0  0  0  0  0  0  0  0
  177.0064   18.5908   46.1494 H   0  0  0  0  0  0  0  0  0  0  0  0
  1  2  1  0
  2  3  1  0
  3  4  2  0
  4  5  1  0
  5  6  2  0
  6  7  1  0
  7  8  1  0
  8  9  1  0
  9 10  2  0
 10 11  1  0
 11 12  2  0
 12 13  1  0
 13 14  1  0
 13 15  2  0
 15 16  1  0
 16 17  2  0
 16 18  1  0
 18 19  1  0
  6 20  1  0
 20 21  2  0
 21 22  1  0
 22 23  1  0
 22 24  1  0
 22 25  1  0
 21  3  1  0
 18  7  2  0
 15  9  1  0
  1 26  1  0
  1 27  1  0
  1 28  1  0
  2 29  1  0
  2 30  1  0
  4 31  1  0
  5 32  1  0
 10 33  1  0
 11 34  1  0
 12 35  1  0
 14 36  1  0
 19 37  1  0
 20 38  1  0
M  END
>  <meeko>  (3) 
{"is_sidechain": [false], "free_energy": -7.858, "intermolecular_energy": -9.907, "internal_energy": -0.27}

$$$$
cand_050_out
     RDKit          3D

 38 40  0  0  0  0  0  0  0  0999 V2000
  183.2480   22.2990   46.3230 C   0  0  0  0  0  0  0  0  0  0  0  0
  182.2010   21.1950   46.2930 C   0  0  0  0  0  0  0  0  0  0  0  0
  181.0180   21.5100   47.1830 C   0  0  0  0  0  0  0  0  0  0  0  0
  181.1720   22.5080   48.1620 C   0  0  0  0  0  0  0  0  0  0  0  0
  180.1230   22.8400   49.0210 C   0  0  0  0  0  0  0  0  0  0  0  0
  178.8880   22.1900   48.9270 C   0  0  0  0  0  0  0  0  0  0  0  0
  177.7970   22.5450   49.8590 C   0  0  0  0  0  0  0  0  0  0  0  0
  176.7080   23.1300   49.2210 O   0  0  0  0  0  0  0  0  0  0  0  0
  175.6250   23.5080   49.9730 C   0  0  0  0  0  0  0  0  0  0  0  0
  174.5610   24.1040   49.2940 C   0  0  0  0  0  0  0  0  0  0  0  0
  173.4260   24.5110   49.9990 C   0  0  0  0  0  0  0  0  0  0  0  0
  173.3550   24.3200   51.3800 C   0  0  0  0  0  0  0  0  0  0  0  0
  174.4170   23.7240   52.0550 C   0  0  0  0  0  0  0  0  0  0  0  0
  174.2810   23.5680   53.4080 O   0  0  0  0  0  0  0  0  0  0  0  0
  175.5540   23.3190   51.3490 C   0  0  0  0  0  0  0  0  0  0  0  0
  176.6920   22.6890   52.0190 C   0  0  0  0  0  0  0  0  0  0  0  0
  176.7020   22.4810   53.2310 O   0  0  0  0  0  0  0  0  0  0  0  0
  177.8510   22.3030   51.1820 C   0  0  0  0  0  0  0  0  0  0  0  0
  178.9170   21.6970   51.8200 O   0  0  0  0  0  0  0  0  0  0  0  0
  178.7380   21.1840   47.9620 C   0  0  0  0  0  0  0  0  0  0  0  0
  179.7850   20.8300   47.0850 C   0  0  0  0  0  0  0  0  0  0  0  0
  179.5410   19.7450   46.0570 C   0  0  0  0  0  0  0  0  0  0  0  0
  180.4220   18.7060   46.1370 F   0  0  0  0  0  0  0  0  0  0  0  0
  179.6340   20.1980   44.7750 F   0  0  0  0  0  0  0  0  0  0  0  0
  178.3040   19.1860   46.1700 F   0  0  0  0  0  0  0  0  0  0  0  0
  183.4862   22.5502   47.3671 H   0  0  0  0  0  0  0  0  0  0  0  0
  184.1590   21.9544   45.8118 H   0  0  0  0  0  0  0  0  0  0  0  0
  182.8556   23.1905   45.8118 H   0  0  0  0  0  0  0  0  0  0  0  0
  181.8448   21.0715   45.2596 H   0  0  0  0  0  0  0  0  0  0  0  0
  182.6699   20.2723   46.6656 H   0  0  0  0  0  0  0  0  0  0  0  0
  182.1334   23.0348   48.2521 H   0  0  0  0  0  0  0  0  0  0  0  0
  180.2693   23.6219   49.7807 H   0  0  0  0  0  0  0  0  0  0  0  0
  174.6163   24.2529   48.2055 H   0  0  0  0  0  0  0  0  0  0  0  0
  172.5874   24.9824   49.4656 H   0  0  0  0  0  0  0  0  0  0  0  0
  172.4606   24.6401   51.9346 H   0  0  0  0  0  0  0  0  0  0  0  0
  174.5980   24.2300   53.9890 H   0  0  0  0  0  0  0  0  0  0  0  0
  179.5480   22.2190   52.2760 H   0  0  0  0  0  0  0  0  0  0  0  0
  177.7763   20.6555   47.8865 H   0  0  0  0  0  0  0  0  0  0  0  0
  1  2  1  0
  2  3  1  0
  3  4  2  0
  4  5  1  0
  5  6  2  0
  6  7  1  0
  7  8  1  0
  8  9  1  0
  9 10  2  0
 10 11  1  0
 11 12  2  0
 12 13  1  0
 13 14  1  0
 13 15  2  0
 15 16  1  0
 16 17  2  0
 16 18  1  0
 18 19  1  0
  6 20  1  0
 20 21  2  0
 21 22  1  0
 22 23  1  0
 22 24  1  0
 22 25  1  0
 21  3  1  0
 18  7  2  0
 15  9  1  0
  1 26  1  0
  1 27  1  0
  1 28  1  0
  2 29  1  0
  2 30  1  0
  4 31  1  0
  5 32  1  0
 10 33  1  0
 11 34  1  0
 12 35  1  0
 14 36  1  0
 19 37  1  0
 20 38  1  0
M  END
>  <meeko>  (4) 
{"is_sidechain": [false], "free_energy": -7.731, "intermolecular_energy": -9.478, "internal_energy": -0.542}

$$$$
cand_050_out
     RDKit          3D

 38 40  0  0  0  0  0  0  0  0999 V2000
  175.5320   17.8090   46.3350 C   0  0  0  0  0  0  0  0  0  0  0  0
  176.5850   18.8980   46.1840 C   0  0  0  0  0  0  0  0  0  0  0  0
  176.5060   19.9210   47.2970 C   0  0  0  0  0  0  0  0  0  0  0  0
  175.3250   19.9860   48.0560 C   0  0  0  0  0  0  0  0  0  0  0  0
  175.1840   20.9130   49.0910 C   0  0  0  0  0  0  0  0  0  0  0  0
  176.2190   21.8000   49.4010 C   0  0  0  0  0  0  0  0  0  0  0  0
  176.0430   22.7860   50.4880 C   0  0  0  0  0  0  0  0  0  0  0  0
  175.5380   24.0020   50.0410 O   0  0  0  0  0  0  0  0  0  0  0  0
  175.3270   25.0060   50.9510 C   0  0  0  0  0  0  0  0  0  0  0  0
  174.8330   26.2140   50.4560 C   0  0  0  0  0  0  0  0  0  0  0  0
  174.5930   27.2780   51.3300 C   0  0  0  0  0  0  0  0  0  0  0  0
  174.8460   27.1330   52.6950 C   0  0  0  0  0  0  0  0  0  0  0  0
  175.3380   25.9270   53.1850 C   0  0  0  0  0  0  0  0  0  0  0  0
  175.5640   25.8540   54.5330 O   0  0  0  0  0  0  0  0  0  0  0  0
  175.5790   24.8620   52.3110 C   0  0  0  0  0  0  0  0  0  0  0  0
  176.0960   23.5780   52.7860 C   0  0  0  0  0  0  0  0  0  0  0  0
  176.3370   23.3700   53.9730 O   0  0  0  0  0  0  0  0  0  0  0  0
  176.3240   22.5180   51.7770 C   0  0  0  0  0  0  0  0  0  0  0  0
  176.8010   21.3030   52.2340 O   0  0  0  0  0  0  0  0  0  0  0  0
  177.3920   21.7480   48.6340 C   0  0  0  0  0  0  0  0  0  0  0  0
  177.5550   20.8210   47.5820 C   0  0  0  0  0  0  0  0  0  0  0  0
  178.8580   20.8140   46.8120 C   0  0  0  0  0  0  0  0  0  0  0  0
  178.6930   20.8450   45.4570 F   0  0  0  0  0  0  0  0  0  0  0  0
  179.6140   19.7060   47.0560 F   0  0  0  0  0  0  0  0  0  0  0  0
  179.6490   21.8820   47.1090 F   0  0  0  0  0  0  0  0  0  0  0  0
  175.3499   17.6207   47.4033 H   0  0  0  0  0  0  0  0  0  0  0  0
  174.5970   18.1341   45.8554 H   0  0  0  0  0  0  0  0  0  0  0  0
  175.8883   16.8854   45.8554 H   0  0  0  0  0  0  0  0  0  0  0  0
  177.5817   18.4329   46.1992 H   0  0  0  0  0  0  0  0  0  0  0  0
  176.4029   19.4172   45.2315 H   0  0  0  0  0  0  0  0  0  0  0  0
  174.4985   19.2958   47.8313 H   0  0  0  0  0  0  0  0  0  0  0  0
  174.2484   20.9455   49.6685 H   0  0  0  0  0  0  0  0  0  0  0  0
  174.6330   26.3284   49.3804 H   0  0  0  0  0  0  0  0  0  0  0  0
  174.2042   28.2309   50.9416 H   0  0  0  0  0  0  0  0  0  0  0  0
  174.6568   27.9707   53.3823 H   0  0  0  0  0  0  0  0  0  0  0  0
  175.5040   25.0300   54.9740 H   0  0  0  0  0  0  0  0  0  0  0  0
  176.3390   20.5140   52.0320 H   0  0  0  0  0  0  0  0  0  0  0  0
  178.2086   22.4499   48.8587 H   0  0  0  0  0  0  0  0  0  0  0  0
  1  2  1  0
  2  3  1  0
  3  4  2  0
  4  5  1  0
  5  6  2  0
  6  7  1  0
  7  8  1  0
  8  9  1  0
  9 10  2  0
 10 11  1  0
 11 12  2  0
 12 13  1  0
 13 14  1  0
 13 15  2  0
 15 16  1  0
 16 17  2  0
 16 18  1  0
 18 19  1  0
  6 20  1  0
 20 21  2  0
 21 22  1  0
 22 23  1  0
 22 24  1  0
 22 25  1  0
 21  3  1  0
 18  7  2  0
 15  9  1  0
  1 26  1  0
  1 27  1  0
  1 28  1  0
  2 29  1  0
  2 30  1  0
  4 31  1  0
  5 32  1  0
 10 33  1  0
 11 34  1  0
 12 35  1  0
 14 36  1  0
 19 37  1  0
 20 38  1  0
M  END
>  <meeko>  (5) 
{"is_sidechain": [false], "free_energy": -7.723, "intermolecular_energy": -9.39, "internal_energy": -0.62}

$$$$
cand_050_out
     RDKit          3D

 38 40  0  0  0  0  0  0  0  0999 V2000
  179.3460   21.2640   46.9330 C   0  0  0  0  0  0  0  0  0  0  0  0
  177.8990   21.2460   46.4620 C   0  0  0  0  0  0  0  0  0  0  0  0
  176.9410   21.6590   47.5590 C   0  0  0  0  0  0  0  0  0  0  0  0
  176.9840   22.9890   48.0100 C   0  0  0  0  0  0  0  0  0  0  0  0
  176.1340   23.4320   49.0260 C   0  0  0  0  0  0  0  0  0  0  0  0
  175.2130   22.5620   49.6170 C   0  0  0  0  0  0  0  0  0  0  0  0
  174.3350   23.0460   50.7030 C   0  0  0  0  0  0  0  0  0  0  0  0
  175.0370   23.4070   51.8480 O   0  0  0  0  0  0  0  0  0  0  0  0
  174.3390   23.8730   52.9330 C   0  0  0  0  0  0  0  0  0  0  0  0
  175.0820   24.2090   54.0660 C   0  0  0  0  0  0  0  0  0  0  0  0
  174.4340   24.6930   55.2050 C   0  0  0  0  0  0  0  0  0  0  0  0
  173.0460   24.8420   55.2100 C   0  0  0  0  0  0  0  0  0  0  0  0
  172.3070   24.5060   54.0780 C   0  0  0  0  0  0  0  0  0  0  0  0
  170.9510   24.6760   54.1520 O   0  0  0  0  0  0  0  0  0  0  0  0
  172.9560   24.0210   52.9390 C   0  0  0  0  0  0  0  0  0  0  0  0
  172.2170   23.6570   51.7290 C   0  0  0  0  0  0  0  0  0  0  0  0
  170.9950   23.7660   51.6530 O   0  0  0  0  0  0  0  0  0  0  0  0
  172.9980   23.1450   50.5800 C   0  0  0  0  0  0  0  0  0  0  0  0
  172.2950   22.8160   49.4350 O   0  0  0  0  0  0  0  0  0  0  0  0
  175.1800   21.2300   49.1790 C   0  0  0  0  0  0  0  0  0  0  0  0
  176.0320   20.7600   48.1560 C   0  0  0  0  0  0  0  0  0  0  0  0
  175.9240   19.3130   47.7250 C   0  0  0  0  0  0  0  0  0  0  0  0
  176.9710   18.8910   46.9580 F   0  0  0  0  0  0  0  0  0  0  0  0
  174.8100   19.0620   46.9810 F   0  0  0  0  0  0  0  0  0  0  0  0
  175.8730   18.4540   48.7800 F   0  0  0  0  0  0  0  0  0  0  0  0
  179.3737   21.2643   48.0327 H   0  0  0  0  0  0  0  0  0  0  0  0
  179.8663   20.3723   46.5534 H   0  0  0  0  0  0  0  0  0  0  0  0
  179.8439   22.1684   46.5534 H   0  0  0  0  0  0  0  0  0  0  0  0
  177.7920   21.9414   45.6165 H   0  0  0  0  0  0  0  0  0  0  0  0
  177.6512   20.2166   46.1639 H   0  0  0  0  0  0  0  0  0  0  0  0
  177.6979   23.6921   47.5561 H   0  0  0  0  0  0  0  0  0  0  0  0
  176.1899   24.4770   49.3649 H   0  0  0  0  0  0  0  0  0  0  0  0
  176.1758   24.0929   54.0619 H   0  0  0  0  0  0  0  0  0  0  0  0
  175.0181   24.9570   56.0989 H   0  0  0  0  0  0  0  0  0  0  0  0
  172.5365   25.2243   56.1068 H   0  0  0  0  0  0  0  0  0  0  0  0
  170.5350   24.7620   54.9860 H   0  0  0  0  0  0  0  0  0  0  0  0
  172.7280   22.8110   48.6050 H   0  0  0  0  0  0  0  0  0  0  0  0
  174.4700   20.5315   49.6459 H   0  0  0  0  0  0  0  0  0  0  0  0
  1  2  1  0
  2  3  1  0
  3  4  2  0
  4  5  1  0
  5  6  2  0
  6  7  1  0
  7  8  1  0
  8  9  1  0
  9 10  2  0
 10 11  1  0
 11 12  2  0
 12 13  1  0
 13 14  1  0
 13 15  2  0
 15 16  1  0
 16 17  2  0
 16 18  1  0
 18 19  1  0
  6 20  1  0
 20 21  2  0
 21 22  1  0
 22 23  1  0
 22 24  1  0
 22 25  1  0
 21  3  1  0
 18  7  2  0
 15  9  1  0
  1 26  1  0
  1 27  1  0
  1 28  1  0
  2 29  1  0
  2 30  1  0
  4 31  1  0
  5 32  1  0
 10 33  1  0
 11 34  1  0
 12 35  1  0
 14 36  1  0
 19 37  1  0
 20 38  1  0
M  END
>  <meeko>  (6) 
{"is_sidechain": [false], "free_energy": -7.546, "intermolecular_energy": -9.606, "internal_energy": -0.186}

$$$$
cand_050_out
     RDKit          3D

 38 40  0  0  0  0  0  0  0  0999 V2000
  180.3920   18.4530   45.4770 C   0  0  0  0  0  0  0  0  0  0  0  0
  180.2430   19.9600   45.3250 C   0  0  0  0  0  0  0  0  0  0  0  0
  179.4890   20.5750   46.4840 C   0  0  0  0  0  0  0  0  0  0  0  0
  178.0860   20.4790   46.4890 C   0  0  0  0  0  0  0  0  0  0  0  0
  177.3310   21.0330   47.5250 C   0  0  0  0  0  0  0  0  0  0  0  0
  177.9520   21.6960   48.5870 C   0  0  0  0  0  0  0  0  0  0  0  0
  177.1320   22.2920   49.6640 C   0  0  0  0  0  0  0  0  0  0  0  0
  176.0790   23.0610   49.1810 O   0  0  0  0  0  0  0  0  0  0  0  0
  175.2400   23.6710   50.0780 C   0  0  0  0  0  0  0  0  0  0  0  0
  174.2060   24.4460   49.5500 C   0  0  0  0  0  0  0  0  0  0  0  0
  173.3130   25.0930   50.4080 C   0  0  0  0  0  0  0  0  0  0  0  0
  173.4550   24.9650   51.7910 C   0  0  0  0  0  0  0  0  0  0  0  0
  174.4880   24.1920   52.3140 C   0  0  0  0  0  0  0  0  0  0  0  0
  174.5680   24.1110   53.6780 O   0  0  0  0  0  0  0  0  0  0  0  0
  175.3810   23.5450   51.4560 C   0  0  0  0  0  0  0  0  0  0  0  0
  176.4800   22.7240   51.9650 C   0  0  0  0  0  0  0  0  0  0  0  0
  176.6670   22.5570   53.1690 O   0  0  0  0  0  0  0  0  0  0  0  0
  177.3750   22.0870   50.9720 C   0  0  0  0  0  0  0  0  0  0  0  0
  178.4030   21.3020   51.4600 O   0  0  0  0  0  0  0  0  0  0  0  0
  179.3500   21.8080   48.5760 C   0  0  0  0  0  0  0  0  0  0  0  0
  180.1330   21.2570   47.5390 C   0  0  0  0  0  0  0  0  0  0  0  0
  181.6390   21.4030   47.6050 C   0  0  0  0  0  0  0  0  0  0  0  0
  182.1910   21.9120   46.4660 F   0  0  0  0  0  0  0  0  0  0  0  0
  182.2780   20.2180   47.8160 F   0  0  0  0  0  0  0  0  0  0  0  0
  182.0410   22.2310   48.6090 F   0  0  0  0  0  0  0  0  0  0  0  0
  180.4177   18.1930   46.5455 H   0  0  0  0  0  0  0  0  0  0  0  0
  179.5392   17.9500   44.9977 H   0  0  0  0  0  0  0  0  0  0  0  0
  181.3268   18.1268   44.9977 H   0  0  0  0  0  0  0  0  0  0  0  0
  181.2443   20.4124   45.2727 H   0  0  0  0  0  0  0  0  0  0  0  0
  179.6703   20.1538   44.4061 H   0  0  0  0  0  0  0  0  0  0  0  0
  177.5756   19.9597   45.6645 H   0  0  0  0  0  0  0  0  0  0  0  0
  176.2346   20.9465   47.5049 H   0  0  0  0  0  0  0  0  0  0  0  0
  174.0944   24.5472   48.4604 H   0  0  0  0  0  0  0  0  0  0  0  0
  172.4974   25.7037   49.9935 H   0  0  0  0  0  0  0  0  0  0  0  0
  172.7517   25.4742   52.4664 H   0  0  0  0  0  0  0  0  0  0  0  0
  174.5220   24.8890   54.1970 H   0  0  0  0  0  0  0  0  0  0  0  0
  178.5950   20.4780   51.0570 H   0  0  0  0  0  0  0  0  0  0  0  0
  179.8502   22.3402   49.3986 H   0  0  0  0  0  0  0  0  0  0  0  0
  1  2  1  0
  2  3  1  0
  3  4  2  0
  4  5  1  0
  5  6  2  0
  6  7  1  0
  7  8  1  0
  8  9  1  0
  9 10  2  0
 10 11  1  0
 11 12  2  0
 12 13  1  0
 13 14  1  0
 13 15  2  0
 15 16  1  0
 16 17  2  0
 16 18  1  0
 18 19  1  0
  6 20  1  0
 20 21  2  0
 21 22  1  0
 22 23  1  0
 22 24  1  0
 22 25  1  0
 21  3  1  0
 18  7  2  0
 15  9  1  0
  1 26  1  0
  1 27  1  0
  1 28  1  0
  2 29  1  0
  2 30  1  0
  4 31  1  0
  5 32  1  0
 10 33  1  0
 11 34  1  0
 12 35  1  0
 14 36  1  0
 19 37  1  0
 20 38  1  0
M  END
>  <meeko>  (7) 
{"is_sidechain": [false], "free_energy": -7.488, "intermolecular_energy": -9.244, "internal_energy": -0.476}

$$$$
cand_050_out
     RDKit          3D

 38 40  0  0  0  0  0  0  0  0999 V2000
  179.7290   20.1820   45.3620 C   0  0  0  0  0  0  0  0  0  0  0  0
  178.6500   19.4480   46.1460 C   0  0  0  0  0  0  0  0  0  0  0  0
  178.0720   20.3040   47.2530 C   0  0  0  0  0  0  0  0  0  0  0  0
  178.9210   21.2230   47.8920 C   0  0  0  0  0  0  0  0  0  0  0  0
  178.4520   22.0360   48.9270 C   0  0  0  0  0  0  0  0  0  0  0  0
  177.1220   21.9570   49.3510 C   0  0  0  0  0  0  0  0  0  0  0  0
  176.6510   22.8140   50.4600 C   0  0  0  0  0  0  0  0  0  0  0  0
  176.0720   23.9990   50.0220 O   0  0  0  0  0  0  0  0  0  0  0  0
  175.5930   24.8860   50.9520 C   0  0  0  0  0  0  0  0  0  0  0  0
  175.0340   26.0700   50.4690 C   0  0  0  0  0  0  0  0  0  0  0  0
  174.5250   27.0150   51.3620 C   0  0  0  0  0  0  0  0  0  0  0  0
  174.5750   26.7760   52.7370 C   0  0  0  0  0  0  0  0  0  0  0  0
  175.1330   25.5940   53.2160 C   0  0  0  0  0  0  0  0  0  0  0  0
  175.1500   25.4250   54.5740 O   0  0  0  0  0  0  0  0  0  0  0  0
  175.6440   24.6490   52.3220 C   0  0  0  0  0  0  0  0  0  0  0  0
  176.2390   23.3950   52.7840 C   0  0  0  0  0  0  0  0  0  0  0  0
  176.3130   23.1080   53.9770 O   0  0  0  0  0  0  0  0  0  0  0  0
  176.7570   22.4640   51.7560 C   0  0  0  0  0  0  0  0  0  0  0  0
  177.3060   21.2750   52.1990 O   0  0  0  0  0  0  0  0  0  0  0  0
  176.2780   21.0290   48.7250 C   0  0  0  0  0  0  0  0  0  0  0  0
  176.7310   20.1960   47.6790 C   0  0  0  0  0  0  0  0  0  0  0  0
  175.7550   19.2320   47.0400 C   0  0  0  0  0  0  0  0  0  0  0  0
  175.5930   18.0710   47.7400 F   0  0  0  0  0  0  0  0  0  0  0  0
  176.1310   18.8460   45.7880 F   0  0  0  0  0  0  0  0  0  0  0  0
  174.5050   19.7580   46.9110 F   0  0  0  0  0  0  0  0  0  0  0  0
  180.4305   20.6592   46.0622 H   0  0  0  0  0  0  0  0  0  0  0  0
  180.2733   19.4660   44.7287 H   0  0  0  0  0  0  0  0  0  0  0  0
  179.2629   20.9512   44.7287 H   0  0  0  0  0  0  0  0  0  0  0  0
  177.8408   19.1647   45.4568 H   0  0  0  0  0  0  0  0  0  0  0  0
  179.1089   18.5608   46.6068 H   0  0  0  0  0  0  0  0  0  0  0  0
  179.9706   21.3037   47.5728 H   0  0  0  0  0  0  0  0  0  0  0  0
  179.1367   22.7461   49.4137 H   0  0  0  0  0  0  0  0  0  0  0  0
  174.9944   26.2585   49.3860 H   0  0  0  0  0  0  0  0  0  0  0  0
  174.0842   27.9485   50.9821 H   0  0  0  0  0  0  0  0  0  0  0  0
  174.1741   27.5206   53.4405 H   0  0  0  0  0  0  0  0  0  0  0  0
  175.1750   24.5630   54.9380 H   0  0  0  0  0  0  0  0  0  0  0  0
  178.2270   21.2160   52.3610 H   0  0  0  0  0  0  0  0  0  0  0  0
  175.2329   20.9475   49.0583 H   0  0  0  0  0  0  0  0  0  0  0  0
  1  2  1  0
  2  3  1  0
  3  4  2  0
  4  5  1  0
  5  6  2  0
  6  7  1  0
  7  8  1  0
  8  9  1  0
  9 10  2  0
 10 11  1  0
 11 12  2  0
 12 13  1  0
 13 14  1  0
 13 15  2  0
 15 16  1  0
 16 17  2  0
 16 18  1  0
 18 19  1  0
  6 20  1  0
 20 21  2  0
 21 22  1  0
 22 23  1  0
 22 24  1  0
 22 25  1  0
 21  3  1  0
 18  7  2  0
 15  9  1  0
  1 26  1  0
  1 27  1  0
  1 28  1  0
  2 29  1  0
  2 30  1  0
  4 31  1  0
  5 32  1  0
 10 33  1  0
 11 34  1  0
 12 35  1  0
 14 36  1  0
 19 37  1  0
 20 38  1  0
M  END
>  <meeko>  (8) 
{"is_sidechain": [false], "free_energy": -7.429, "intermolecular_energy": -9.36, "internal_energy": -0.288}

$$$$
cand_050_out
     RDKit          3D

 38 40  0  0  0  0  0  0  0  0999 V2000
  176.5020   18.9960   46.3160 C   0  0  0  0  0  0  0  0  0  0  0  0
  176.2920   20.4730   46.6150 C   0  0  0  0  0  0  0  0  0  0  0  0
  177.4190   21.0500   47.4440 C   0  0  0  0  0  0  0  0  0  0  0  0
  178.5910   21.4530   46.7810 C   0  0  0  0  0  0  0  0  0  0  0  0
  179.6720   21.9840   47.4880 C   0  0  0  0  0  0  0  0  0  0  0  0
  179.6140   22.1330   48.8770 C   0  0  0  0  0  0  0  0  0  0  0  0
  180.7760   22.6810   49.6080 C   0  0  0  0  0  0  0  0  0  0  0  0
  180.7300   24.0650   49.7400 O   0  0  0  0  0  0  0  0  0  0  0  0
  181.7510   24.7010   50.3990 C   0  0  0  0  0  0  0  0  0  0  0  0
  181.6730   26.0910   50.4940 C   0  0  0  0  0  0  0  0  0  0  0  0
  182.6780   26.8010   51.1550 C   0  0  0  0  0  0  0  0  0  0  0  0
  183.7580   26.1210   51.7200 C   0  0  0  0  0  0  0  0  0  0  0  0
  183.8340   24.7350   51.6230 C   0  0  0  0  0  0  0  0  0  0  0  0
  184.9200   24.1330   52.1990 O   0  0  0  0  0  0  0  0  0  0  0  0
  182.8290   24.0240   50.9610 C   0  0  0  0  0  0  0  0  0  0  0  0
  182.8700   22.5670   50.8370 C   0  0  0  0  0  0  0  0  0  0  0  0
  183.7840   21.8970   51.3130 O   0  0  0  0  0  0  0  0  0  0  0  0
  181.7590   21.9110   50.1100 C   0  0  0  0  0  0  0  0  0  0  0  0
  181.7980   20.5320   50.0070 O   0  0  0  0  0  0  0  0  0  0  0  0
  178.4510   21.7170   49.5420 C   0  0  0  0  0  0  0  0  0  0  0  0
  177.3480   21.1750   48.8480 C   0  0  0  0  0  0  0  0  0  0  0  0
  176.1210   20.7650   49.6350 C   0  0  0  0  0  0  0  0  0  0  0  0
  175.8150   19.4400   49.5210 F   0  0  0  0  0  0  0  0  0  0  0  0
  174.9960   21.4290   49.2470 F   0  0  0  0  0  0  0  0  0  0  0  0
  176.2530   20.9970   50.9700 F   0  0  0  0  0  0  0  0  0  0  0  0
  176.5813   18.4383   47.2608 H   0  0  0  0  0  0  0  0  0  0  0  0
  175.6491   18.6145   45.7355 H   0  0  0  0  0  0  0  0  0  0  0  0
  177.4275   18.8674   45.7355 H   0  0  0  0  0  0  0  0  0  0  0  0
  176.2332   21.0229   45.6641 H   0  0  0  0  0  0  0  0  0  0  0  0
  175.3606   20.5736   47.1914 H   0  0  0  0  0  0  0  0  0  0  0  0
  178.6578   21.3485   45.6880 H   0  0  0  0  0  0  0  0  0  0  0  0
  180.5794   22.2885   46.9459 H   0  0  0  0  0  0  0  0  0  0  0  0
  180.8215   26.6267   50.0491 H   0  0  0  0  0  0  0  0  0  0  0  0
  182.6182   27.8968   51.2303 H   0  0  0  0  0  0  0  0  0  0  0  0
  184.5486   26.6804   52.2416 H   0  0  0  0  0  0  0  0  0  0  0  0
  185.6660   24.6450   52.4390 H   0  0  0  0  0  0  0  0  0  0  0  0
  182.0630   20.0160   50.7430 H   0  0  0  0  0  0  0  0  0  0  0  0
  178.3971   21.8161   50.6362 H   0  0  0  0  0  0  0  0  0  0  0  0
  1  2  1  0
  2  3  1  0
  3  4  2  0
  4  5  1  0
  5  6  2  0
  6  7  1  0
  7  8  1  0
  8  9  1  0
  9 10  2  0
 10 11  1  0
 11 12  2  0
 12 13  1  0
 13 14  1  0
 13 15  2  0
 15 16  1  0
 16 17  2  0
 16 18  1  0
 18 19  1  0
  6 20  1  0
 20 21  2  0
 21 22  1  0
 22 23  1  0
 22 24  1  0
 22 25  1  0
 21  3  1  0
 18  7  2  0
 15  9  1  0
  1 26  1  0
  1 27  1  0
  1 28  1  0
  2 29  1  0
  2 30  1  0
  4 31  1  0
  5 32  1  0
 10 33  1  0
 11 34  1  0
 12 35  1  0
 14 36  1  0
 19 37  1  0
 20 38  1  0
M  END
>  <meeko>  (9) 
{"is_sidechain": [false], "free_energy": -7.406, "intermolecular_energy": -8.883, "internal_energy": -0.736}

$$$$
