cand_038_out
     RDKit          3D

 47 49  0  0  0  0  0  0  0  0999 V2000
  174.9530   19.6630   47.4090 C   0  0  0  0  0  0  0  0  0  0  0  0
  175.7280   20.9330   47.0740 C   0  0  0  0  0  0  0  0  0  0  0  0
  177.2070   20.8020   47.3730 C   0  0  0  0  0  0  0  0  0  0  0  0
  177.8890   19.8730   46.5390 C   0  0  0  0  0  0  0  0  0  0  0  0
  179.2590   19.6210   46.6450 C   0  0  0  0  0  0  0  0  0  0  0  0
  179.9480   18.6360   45.7860 C   0  0  0  0  0  0  0  0  0  0  0  0
  179.3620   17.3750   45.8320 O   0  0  0  0  0  0  0  0  0  0  0  0
  179.9020   16.3660   45.0790 C   0  0  0  0  0  0  0  0  0  0  0  0
  179.2740   15.1210   45.1440 C   0  0  0  0  0  0  0  0  0  0  0  0
  179.7740   14.0480   44.4040 C   0  0  0  0  0  0  0  0  0  0  0  0
  180.9030   14.2180   43.5990 C   0  0  0  0  0  0  0  0  0  0  0  0
  181.5290   15.4610   43.5370 C   0  0  0  0  0  0  0  0  0  0  0  0
  182.6300   15.5580   42.7310 O   0  0  0  0  0  0  0  0  0  0  0  0
  181.0270   16.5340   44.2780 C   0  0  0  0  0  0  0  0  0  0  0  0
  181.6540   17.8560   44.2400 C   0  0  0  0  0  0  0  0  0  0  0  0
  182.6540   18.0830   43.5620 O   0  0  0  0  0  0  0  0  0  0  0  0
  181.0400   18.9290   45.0550 C   0  0  0  0  0  0  0  0  0  0  0  0
  181.6490   20.1710   45.0220 O   0  0  0  0  0  0  0  0  0  0  0  0
  179.9610   20.3040   47.6300 C   0  0  0  0  0  0  0  0  0  0  0  0
  179.3120   21.2220   48.4660 C   0  0  0  0  0  0  0  0  0  0  0  0
  177.9290   21.5120   48.3700 C   0  0  0  0  0  0  0  0  0  0  0  0
  177.3110   22.5370   49.3610 C   0  0  0  0  0  0  0  0  0  0  0  0
  178.3420   23.1350   50.3640 C   0  0  0  0  0  0  0  0  0  0  0  0
  176.7190   23.7670   48.6360 C   0  0  0  0  0  0  0  0  0  0  0  0
  176.2410   21.8460   50.2330 C   0  0  0  0  0  0  0  0  0  0  0  0
  174.8853   19.5521   48.5013 H   0  0  0  0  0  0  0  0  0  0  0  0
  173.9407   19.7283   46.9837 H   0  0  0  0  0  0  0  0  0  0  0  0
  175.4740   18.7926   46.9837 H   0  0  0  0  0  0  0  0  0  0  0  0
  175.6020   21.1518   46.0034 H   0  0  0  0  0  0  0  0  0  0  0  0
  175.3295   21.7445   47.7006 H   0  0  0  0  0  0  0  0  0  0  0  0
  177.3120   19.3289   45.7768 H   0  0  0  0  0  0  0  0  0  0  0  0
  178.3854   14.9854   45.7781 H   0  0  0  0  0  0  0  0  0  0  0  0
  179.2783   13.0673   44.4549 H   0  0  0  0  0  0  0  0  0  0  0  0
  181.2967   13.3726   43.0156 H   0  0  0  0  0  0  0  0  0  0  0  0
  183.4880   15.5220   43.1040 H   0  0  0  0  0  0  0  0  0  0  0  0
  181.6960   20.6900   45.8010 H   0  0  0  0  0  0  0  0  0  0  0  0
  181.0386   20.1220   47.7550 H   0  0  0  0  0  0  0  0  0  0  0  0
  179.9045   21.7421   49.2331 H   0  0  0  0  0  0  0  0  0  0  0  0
  178.0070   22.9407   51.3936 H   0  0  0  0  0  0  0  0  0  0  0  0
  179.3241   22.6664   50.2033 H   0  0  0  0  0  0  0  0  0  0  0  0
  178.4229   24.2202   50.2033 H   0  0  0  0  0  0  0  0  0  0  0  0
  176.3676   24.4971   49.3799 H   0  0  0  0  0  0  0  0  0  0  0  0
  177.4933   24.2291   48.0060 H   0  0  0  0  0  0  0  0  0  0  0  0
  175.8748   23.4501   48.0060 H   0  0  0  0  0  0  0  0  0  0  0  0
  176.4790   21.9997   51.2959 H   0  0  0  0  0  0  0  0  0  0  0  0
  175.2535   22.2774   50.0123 H   0  0  0  0  0  0  0  0  0  0  0  0
  176.2280   20.7685   50.0123 H   0  0  0  0  0  0  0  0  0  0  0  0
  1  2  1  0
  2  3  1  0
  3  4  2  0
  4  5  1  0
  5  6  1  0
  6  7  1  0
  7  8  1  0
  8  9  2  0
  9 10  1  0
 10 11  2  0
 11 12  1  0
 12 13  1  0
 12 14  2  0
 14 15  1  0
 15 16  2  0
 15 17  1  0
 17 18  1  0
  5 19  2  0
 19 20  1  0
 20 21  2  0
 21 22  1  0
 22 23  1  0
 22 24  1  0
 22 25  1  0
 21  3  1  0
 17  6  2  0
 14  8  1  0
  1 26  1  0
  1 27  1  0
  1 28  1  0
  2 29  1  0
  2 30  1  0
  4 31  1  0
  9 32  1  0
 10 33  1  0
 11 34  1  0
 13 35  1  0
 18 36  1  0
 19 37  1  0
 20 38  1  0
 23 39  1  0
 23 40  1  0
 23 41  1  0
 24 42  1  0
 24 43  1  0
 24 44  1  0
 25 45  1  0
 25 46  1  0
 25 47  1  0
M  END
>  <meeko>  (1) 
{"is_sidechain": [false], "free_energy": -7.618, "intermolecular_energy": -9.399, "internal_energy": -0.406}

$$$$
cand_038_out
     RDKit          3D

 47 49  0  0  0  0  0  0  0  0999 V2000
  175.6810   18.6640   47.0530 C   0  0  0  0  0  0  0  0  0  0  0  0
  176.8900   19.2440   46.3280 C   0  0  0  0  0  0  0  0  0  0  0  0
  177.7000   20.1740   47.2080 C   0  0  0  0  0  0  0  0  0  0  0  0
  176.9440   20.8150   48.2270 C   0  0  0  0  0  0  0  0  0  0  0  0
  177.5090   21.6970   49.1510 C   0  0  0  0  0  0  0  0  0  0  0  0
  176.7040   22.3730   50.1910 C   0  0  0  0  0  0  0  0  0  0  0  0
  175.6290   23.0820   49.6660 O   0  0  0  0  0  0  0  0  0  0  0  0
  174.7990   23.7560   50.5230 C   0  0  0  0  0  0  0  0  0  0  0  0
  173.7240   24.4430   49.9550 C   0  0  0  0  0  0  0  0  0  0  0  0
  172.8410   25.1520   50.7710 C   0  0  0  0  0  0  0  0  0  0  0  0
  173.0310   25.1770   52.1540 C   0  0  0  0  0  0  0  0  0  0  0  0
  174.1050   24.4920   52.7180 C   0  0  0  0  0  0  0  0  0  0  0  0
  174.2330   24.5580   54.0790 O   0  0  0  0  0  0  0  0  0  0  0  0
  174.9880   23.7820   51.9010 C   0  0  0  0  0  0  0  0  0  0  0  0
  176.1280   23.0480   52.4530 C   0  0  0  0  0  0  0  0  0  0  0  0
  176.3670   23.0280   53.6590 O   0  0  0  0  0  0  0  0  0  0  0  0
  177.0000   22.3200   51.5030 C   0  0  0  0  0  0  0  0  0  0  0  0
  178.0820   21.6420   52.0350 O   0  0  0  0  0  0  0  0  0  0  0  0
  178.8680   21.9610   49.0360 C   0  0  0  0  0  0  0  0  0  0  0  0
  179.6340   21.3440   48.0380 C   0  0  0  0  0  0  0  0  0  0  0  0
  179.0920   20.4320   47.0990 C   0  0  0  0  0  0  0  0  0  0  0  0
  180.0340   19.8200   46.0250 C   0  0  0  0  0  0  0  0  0  0  0  0
  179.8190   18.2930   45.8030 C   0  0  0  0  0  0  0  0  0  0  0  0
  179.8180   20.4480   44.6300 C   0  0  0  0  0  0  0  0  0  0  0  0
  181.5050   19.9680   46.4720 C   0  0  0  0  0  0  0  0  0  0  0  0
  175.8349   18.7378   48.1397 H   0  0  0  0  0  0  0  0  0  0  0  0
  174.7793   19.2276   46.7712 H   0  0  0  0  0  0  0  0  0  0  0  0
  175.5563   17.6080   46.7712 H   0  0  0  0  0  0  0  0  0  0  0  0
  177.5359   18.4162   46.0002 H   0  0  0  0  0  0  0  0  0  0  0  0
  176.5196   19.8291   45.4733 H   0  0  0  0  0  0  0  0  0  0  0  0
  175.8657   20.6071   48.2907 H   0  0  0  0  0  0  0  0  0  0  0  0
  173.5733   24.4254   48.8655 H   0  0  0  0  0  0  0  0  0  0  0  0
  171.9937   25.6922   50.3236 H   0  0  0  0  0  0  0  0  0  0  0  0
  172.3347   25.7360   52.7964 H   0  0  0  0  0  0  0  0  0  0  0  0
  174.8420   24.0000   54.5190 H   0  0  0  0  0  0  0  0  0  0  0  0
  178.4150   20.8800   51.6030 H   0  0  0  0  0  0  0  0  0  0  0  0
  179.3476   22.6615   49.7355 H   0  0  0  0  0  0  0  0  0  0  0  0
  180.7071   21.5789   47.9809 H   0  0  0  0  0  0  0  0  0  0  0  0
  179.7478   17.7873   46.7773 H   0  0  0  0  0  0  0  0  0  0  0  0
  178.8893   18.1320   45.2375 H   0  0  0  0  0  0  0  0  0  0  0  0
  180.6681   17.8816   45.2375 H   0  0  0  0  0  0  0  0  0  0  0  0
  179.4622   21.4825   44.7447 H   0  0  0  0  0  0  0  0  0  0  0  0
  180.7683   20.4464   44.0760 H   0  0  0  0  0  0  0  0  0  0  0  0
  179.0697   19.8622   44.0760 H   0  0  0  0  0  0  0  0  0  0  0  0
  181.5556   19.9731   47.5708 H   0  0  0  0  0  0  0  0  0  0  0  0
  182.0934   19.1245   46.0818 H   0  0  0  0  0  0  0  0  0  0  0  0
  181.9136   20.9118   46.0818 H   0  0  0  0  0  0  0  0  0  0  0  0
  1  2  1  0
  2  3  1  0
  3  4  2  0
  4  5  1  0
  5  6  1  0
  6  7  1  0
  7  8  1  0
  8  9  2  0
  9 10  1  0
 10 11  2  0
 11 12  1  0
 12 13  1  0
 12 14  2  0
 14 15  1  0
 15 16  2  0
 15 17  1  0
 17 18  1  0
  5 19  2  0
 19 20  1  0
 20 21  2  0
 21 22  1  0
 22 23  1  0
 22 24  1  0
 22 25  1  0
 21  3  1  0
 17  6  2  0
 14  8  1  0
  1 26  1  0
  1 27  1  0
  1 28  1  0
  2 29  1  0
  2 30  1  0
  4 31  1  0
  9 32  1  0
 10 33  1  0
 11 34  1  0
 13 35  1  0
 18 36  1  0
 19 37  1  0
 20 38  1  0
 23 39  1  0
 23 40  1  0
 23 41  1  0
 24 42  1  0
 24 43  1  0
 24 44  1  0
 25 45  1  0
 25 46  1  0
 25 47  1  0
M  END
>  <meeko>  (2) 
{"is_sidechain": [false], "free_energy": -7.615, "intermolecular_energy": -9.528, "internal_energy": -0.273}

$$$$
cand_038_out
     RDKit          3D

 47 49  0  0  0  0  0  0  0  0999 V2000
  180.6830   21.5150   49.9520 C   0  0  0  0  0  0  0  0  0  0  0  0
  179.7130   22.2770   49.0550 C   0  0  0  0  0  0  0  0  0  0  0  0
  178.8400   21.3520   48.2320 C   0  0  0  0  0  0  0  0  0  0  0  0
  179.5650   20.4280   47.4320 C   0  0  0  0  0  0  0  0  0  0  0  0
  178.9450   19.4810   46.6140 C   0  0  0  0  0  0  0  0  0  0  0  0
  179.7130   18.5410   45.7710 C   0  0  0  0  0  0  0  0  0  0  0  0
  179.2190   17.2420   45.8220 O   0  0  0  0  0  0  0  0  0  0  0  0
  179.8390   16.2670   45.0850 C   0  0  0  0  0  0  0  0  0  0  0  0
  179.3010   14.9810   45.1540 C   0  0  0  0  0  0  0  0  0  0  0  0
  179.8870   13.9410   44.4290 C   0  0  0  0  0  0  0  0  0  0  0  0
  181.0100   14.1860   43.6360 C   0  0  0  0  0  0  0  0  0  0  0  0
  181.5460   15.4690   43.5700 C   0  0  0  0  0  0  0  0  0  0  0  0
  182.6470   15.6390   42.7760 O   0  0  0  0  0  0  0  0  0  0  0  0
  180.9590   16.5100   44.2950 C   0  0  0  0  0  0  0  0  0  0  0  0
  181.4900   17.8730   44.2530 C   0  0  0  0  0  0  0  0  0  0  0  0
  182.4800   18.1660   43.5850 O   0  0  0  0  0  0  0  0  0  0  0  0
  180.7900   18.9060   45.0510 C   0  0  0  0  0  0  0  0  0  0  0  0
  181.3090   20.1880   45.0150 O   0  0  0  0  0  0  0  0  0  0  0  0
  177.5550   19.4760   46.5810 C   0  0  0  0  0  0  0  0  0  0  0  0
  176.8180   20.3790   47.3570 C   0  0  0  0  0  0  0  0  0  0  0  0
  177.4200   21.3380   48.2090 C   0  0  0  0  0  0  0  0  0  0  0  0
  176.5020   22.3000   49.0140 C   0  0  0  0  0  0  0  0  0  0  0  0
  174.9820   22.0330   48.8060 C   0  0  0  0  0  0  0  0  0  0  0  0
  176.7130   22.1710   50.5390 C   0  0  0  0  0  0  0  0  0  0  0  0
  176.7320   23.7540   48.5490 C   0  0  0  0  0  0  0  0  0  0  0  0
  180.4365   21.7086   51.0064 H   0  0  0  0  0  0  0  0  0  0  0  0
  180.6012   20.4371   49.7483 H   0  0  0  0  0  0  0  0  0  0  0  0
  181.7108   21.8497   49.7483 H   0  0  0  0  0  0  0  0  0  0  0  0
  179.0664   22.9043   49.6863 H   0  0  0  0  0  0  0  0  0  0  0  0
  180.3079   22.8853   48.3579 H   0  0  0  0  0  0  0  0  0  0  0  0
  180.6642   20.4601   47.4582 H   0  0  0  0  0  0  0  0  0  0  0  0
  178.4166   14.7868   45.7786 H   0  0  0  0  0  0  0  0  0  0  0  0
  179.4632   12.9273   44.4827 H   0  0  0  0  0  0  0  0  0  0  0  0
  181.4703   13.3665   43.0645 H   0  0  0  0  0  0  0  0  0  0  0  0
  183.0430   14.8990   42.3600 H   0  0  0  0  0  0  0  0  0  0  0  0
  182.0500   20.3780   44.4730 H   0  0  0  0  0  0  0  0  0  0  0  0
  177.0286   18.7549   45.9384 H   0  0  0  0  0  0  0  0  0  0  0  0
  175.7200   20.3422   47.3027 H   0  0  0  0  0  0  0  0  0  0  0  0
  174.4877   21.9462   49.7848 H   0  0  0  0  0  0  0  0  0  0  0  0
  174.5369   22.8667   48.2431 H   0  0  0  0  0  0  0  0  0  0  0  0
  174.8477   21.0975   48.2431 H   0  0  0  0  0  0  0  0  0  0  0  0
  175.8897   22.6744   51.0670 H   0  0  0  0  0  0  0  0  0  0  0  0
  176.7313   21.1071   50.8179 H   0  0  0  0  0  0  0  0  0  0  0  0
  177.6683   22.6397   50.8179 H   0  0  0  0  0  0  0  0  0  0  0  0
  176.8354   24.4079   49.4275 H   0  0  0  0  0  0  0  0  0  0  0  0
  177.6493   23.8047   47.9441 H   0  0  0  0  0  0  0  0  0  0  0  0
  175.8751   24.0854   47.9441 H   0  0  0  0  0  0  0  0  0  0  0  0
  1  2  1  0
  2  3  1  0
  3  4  2  0
  4  5  1  0
  5  6  1  0
  6  7  1  0
  7  8  1  0
  8  9  2  0
  9 10  1  0
 10 11  2  0
 11 12  1  0
 12 13  1  0
 12 14  2  0
 14 15  1  0
 15 16  2  0
 15 17  1  0
 17 18  1  0
  5 19  2  0
 19 20  1  0
 20 21  2  0
 21 22  1  0
 22 23  1  0
 22 24  1  0
 22 25  1  0
 21  3  1  0
 17  6  2  0
 14  8  1  0
  1 26  1  0
  1 27  1  0
  1 28  1  0
  2 29  1  0
  2 30  1  0
  4 31  1  0
  9 32  1  0
 10 33  1  0
 11 34  1  0
 13 35  1  0
 18 36  1  0
 19 37  1  0
 20 38  1  0
 23 39  1  0
 23 40  1  0
 23 41  1  0
 24 42  1  0
 24 43  1  0
 24 44  1  0
 25 45  1  0
 25 46  1  0
 25 47  1  0
M  END
>  <meeko>  (3) 
{"is_sidechain": [false], "free_energy": -7.548, "intermolecular_energy": -9.444, "internal_energy": -0.276}

$$$$
cand_038_out
     RDKit          3D

 47 49  0  0  0  0  0  0  0  0999 V2000
  177.4100   21.6130   51.1570 C   0  0  0  0  0  0  0  0  0  0  0  0
  177.1990   22.1540   49.7470 C   0  0  0  0  0  0  0  0  0  0  0  0
  178.1920   21.5830   48.7550 C   0  0  0  0  0  0  0  0  0  0  0  0
  179.5200   22.0630   48.9200 C   0  0  0  0  0  0  0  0  0  0  0  0
  180.5840   21.6450   48.1170 C   0  0  0  0  0  0  0  0  0  0  0  0
  181.9550   22.1700   48.2870 C   0  0  0  0  0  0  0  0  0  0  0  0
  182.3670   22.9610   47.2200 O   0  0  0  0  0  0  0  0  0  0  0  0
  183.6210   23.5140   47.2500 C   0  0  0  0  0  0  0  0  0  0  0  0
  183.9880   24.3130   46.1660 C   0  0  0  0  0  0  0  0  0  0  0  0
  185.2520   24.9040   46.1320 C   0  0  0  0  0  0  0  0  0  0  0  0
  186.1500   24.6970   47.1820 C   0  0  0  0  0  0  0  0  0  0  0  0
  185.7820   23.8990   48.2620 C   0  0  0  0  0  0  0  0  0  0  0  0
  186.7100   23.7370   49.2540 O   0  0  0  0  0  0  0  0  0  0  0  0
  184.5170   23.3080   48.2950 C   0  0  0  0  0  0  0  0  0  0  0  0
  184.0900   22.4620   49.4110 C   0  0  0  0  0  0  0  0  0  0  0  0
  184.8260   22.2260   50.3680 O   0  0  0  0  0  0  0  0  0  0  0  0
  182.7250   21.8890   49.3550 C   0  0  0  0  0  0  0  0  0  0  0  0
  182.3380   21.0810   50.4080 O   0  0  0  0  0  0  0  0  0  0  0  0
  180.3020   20.7360   47.1030 C   0  0  0  0  0  0  0  0  0  0  0  0
  179.0010   20.2520   46.9180 C   0  0  0  0  0  0  0  0  0  0  0  0
  177.9070   20.6430   47.7290 C   0  0  0  0  0  0  0  0  0  0  0  0
  176.5030   20.0520   47.4220 C   0  0  0  0  0  0  0  0  0  0  0  0
  175.8320   19.3680   48.6490 C   0  0  0  0  0  0  0  0  0  0  0  0
  175.4940   21.1380   46.9840 C   0  0  0  0  0  0  0  0  0  0  0  0
  176.6220   18.9480   46.3490 C   0  0  0  0  0  0  0  0  0  0  0  0
  177.1123   22.3763   51.8910 H   0  0  0  0  0  0  0  0  0  0  0  0
  176.7982   20.7099   51.2986 H   0  0  0  0  0  0  0  0  0  0  0  0
  178.4717   21.3626   51.2986 H   0  0  0  0  0  0  0  0  0  0  0  0
  176.1819   21.8950   49.4177 H   0  0  0  0  0  0  0  0  0  0  0  0
  177.3465   23.2436   49.7801 H   0  0  0  0  0  0  0  0  0  0  0  0
  179.7186   22.7963   49.7155 H   0  0  0  0  0  0  0  0  0  0  0  0
  183.2815   24.4768   45.3390 H   0  0  0  0  0  0  0  0  0  0  0  0
  185.5414   25.5334   45.2776 H   0  0  0  0  0  0  0  0  0  0  0  0
  187.1458   25.1635   47.1556 H   0  0  0  0  0  0  0  0  0  0  0  0
  187.5400   24.1670   49.1940 H   0  0  0  0  0  0  0  0  0  0  0  0
  182.7960   20.2810   50.5770 H   0  0  0  0  0  0  0  0  0  0  0  0
  181.1095   20.3935   46.4392 H   0  0  0  0  0  0  0  0  0  0  0  0
  178.8198   19.5342   46.1044 H   0  0  0  0  0  0  0  0  0  0  0  0
  176.2464   19.7904   49.5763 H   0  0  0  0  0  0  0  0  0  0  0  0
  174.7466   19.5441   48.6188 H   0  0  0  0  0  0  0  0  0  0  0  0
  176.0289   18.2862   48.6188 H   0  0  0  0  0  0  0  0  0  0  0  0
  175.0546   21.6109   47.8747 H   0  0  0  0  0  0  0  0  0  0  0  0
  176.0126   21.8993   46.3828 H   0  0  0  0  0  0  0  0  0  0  0  0
  174.6967   20.6766   46.3828 H   0  0  0  0  0  0  0  0  0  0  0  0
  176.7275   17.9693   46.8400 H   0  0  0  0  0  0  0  0  0  0  0  0
  175.7187   18.9479   45.7213 H   0  0  0  0  0  0  0  0  0  0  0  0
  177.5046   19.1403   45.7213 H   0  0  0  0  0  0  0  0  0  0  0  0
  1  2  1  0
  2  3  1  0
  3  4  2  0
  4  5  1  0
  5  6  1  0
  6  7  1  0
  7  8  1  0
  8  9  2  0
  9 10  1  0
 10 11  2  0
 11 12  1  0
 12 13  1  0
 12 14  2  0
 14 15  1  0
 15 16  2  0
 15 17  1  0
 17 18  1  0
  5 19  2  0
 19 20  1  0
 20 21  2  0
 21 22  1  0
 22 23  1  0
 22 24  1  0
 22 25  1  0
 21  3  1  0
 17  6  2  0
 14  8  1  0
  1 26  1  0
  1 27  1  0
  1 28  1  0
  2 29  1  0
  2 30  1  0
  4 31  1  0
  9 32  1  0
 10 33  1  0
 11 34  1  0
 13 35  1  0
 18 36  1  0
 19 37  1  0
 20 38  1  0
 23 39  1  0
 23 40  1  0
 23 41  1  0
 24 42  1  0
 24 43  1  0
 24 44  1  0
 25 45  1  0
 25 46  1  0
 25 47  1  0
M  END
>  <meeko>  (4) 
{"is_sidechain": [false], "free_energy": -7.437, "intermolecular_energy": -9.049, "internal_energy": -0.532}

$$$$
cand_038_out
     RDKit          3D

 47 49  0  0  0  0  0  0  0  0999 V2000
  179.7030   18.8280   45.9440 C   0  0  0  0  0  0  0  0  0  0  0  0
  178.4130   19.5440   46.3310 C   0  0  0  0  0  0  0  0  0  0  0  0
  178.6330   20.5870   47.4070 C   0  0  0  0  0  0  0  0  0  0  0  0
  179.9930   20.9610   47.5860 C   0  0  0  0  0  0  0  0  0  0  0  0
  180.4020   21.9190   48.5160 C   0  0  0  0  0  0  0  0  0  0  0  0
  181.8230   22.2790   48.7050 C   0  0  0  0  0  0  0  0  0  0  0  0
  182.4580   22.6130   47.5140 O   0  0  0  0  0  0  0  0  0  0  0  0
  183.7810   22.9700   47.5450 C   0  0  0  0  0  0  0  0  0  0  0  0
  184.3750   23.3110   46.3290 C   0  0  0  0  0  0  0  0  0  0  0  0
  185.7210   23.6810   46.2900 C   0  0  0  0  0  0  0  0  0  0  0  0
  186.4730   23.7100   47.4660 C   0  0  0  0  0  0  0  0  0  0  0  0
  185.8790   23.3680   48.6780 C   0  0  0  0  0  0  0  0  0  0  0  0
  186.6740   23.4170   49.7910 O   0  0  0  0  0  0  0  0  0  0  0  0
  184.5320   22.9980   48.7160 C   0  0  0  0  0  0  0  0  0  0  0  0
  183.8690   22.6320   49.9690 C   0  0  0  0  0  0  0  0  0  0  0  0
  184.4650   22.6260   51.0440 O   0  0  0  0  0  0  0  0  0  0  0  0
  182.4360   22.2630   49.9030 C   0  0  0  0  0  0  0  0  0  0  0  0
  181.8230   21.9060   51.0910 O   0  0  0  0  0  0  0  0  0  0  0  0
  179.4200   22.5040   49.3060 C   0  0  0  0  0  0  0  0  0  0  0  0
  178.0730   22.1500   49.1520 C   0  0  0  0  0  0  0  0  0  0  0  0
  177.6270   21.1960   48.2040 C   0  0  0  0  0  0  0  0  0  0  0  0
  176.1090   20.8710   48.1310 C   0  0  0  0  0  0  0  0  0  0  0  0
  175.2320   21.7760   49.0460 C   0  0  0  0  0  0  0  0  0  0  0  0
  175.5340   21.0820   46.7120 C   0  0  0  0  0  0  0  0  0  0  0  0
  175.8580   19.4270   48.6170 C   0  0  0  0  0  0  0  0  0  0  0  0
  180.2432   18.5282   46.8541 H   0  0  0  0  0  0  0  0  0  0  0  0
  179.4622   17.9344   45.3494 H   0  0  0  0  0  0  0  0  0  0  0  0
  180.3339   19.5050   45.3494 H   0  0  0  0  0  0  0  0  0  0  0  0
  178.0017   20.0383   45.4385 H   0  0  0  0  0  0  0  0  0  0  0  0
  177.7179   18.7909   46.7305 H   0  0  0  0  0  0  0  0  0  0  0  0
  180.7578   20.4735   46.9636 H   0  0  0  0  0  0  0  0  0  0  0  0
  183.7833   23.2883   45.4019 H   0  0  0  0  0  0  0  0  0  0  0  0
  186.1893   23.9499   45.3317 H   0  0  0  0  0  0  0  0  0  0  0  0
  187.5329   24.0025   47.4351 H   0  0  0  0  0  0  0  0  0  0  0  0
  186.9860   22.6230   50.1780 H   0  0  0  0  0  0  0  0  0  0  0  0
  181.1110   21.2970   51.0850 H   0  0  0  0  0  0  0  0  0  0  0  0
  179.7030   23.2530   50.0603 H   0  0  0  0  0  0  0  0  0  0  0  0
  177.3265   22.6357   49.7976 H   0  0  0  0  0  0  0  0  0  0  0  0
  175.4496   21.5515   50.1006 H   0  0  0  0  0  0  0  0  0  0  0  0
  175.4585   22.8329   48.8418 H   0  0  0  0  0  0  0  0  0  0  0  0
  174.1685   21.5828   48.8418 H   0  0  0  0  0  0  0  0  0  0  0  0
  174.5037   21.4601   46.7864 H   0  0  0  0  0  0  0  0  0  0  0  0
  176.1539   21.8112   46.1699 H   0  0  0  0  0  0  0  0  0  0  0  0
  175.5351   20.1249   46.1699 H   0  0  0  0  0  0  0  0  0  0  0  0
  175.8543   19.4057   49.7168 H   0  0  0  0  0  0  0  0  0  0  0  0
  174.8856   19.0771   48.2402 H   0  0  0  0  0  0  0  0  0  0  0  0
  176.6553   18.7695   48.2402 H   0  0  0  0  0  0  0  0  0  0  0  0
  1  2  1  0
  2  3  1  0
  3  4  2  0
  4  5  1  0
  5  6  1  0
  6  7  1  0
  7  8  1  0
  8  9  2  0
  9 10  1  0
 10 11  2  0
 11 12  1  0
 12 13  1  0
 12 14  2  0
 14 15  1  0
 15 16  2  0
 15 17  1  0
 17 18  1  0
  5 19  2  0
 19 20  1  0
 20 21  2  0
 21 22  1  0
 22 23  1  0
 22 24  1  0
 22 25  1  0
 21  3  1  0
 17  6  2  0
 14  8  1  0
  1 26  1  0
  1 27  1  0
  1 28  1  0
  2 29  1  0
  2 30  1  0
  4 31  1  0
  9 32  1  0
 10 33  1  0
 11 34  1  0
 13 35  1  0
 18 36  1  0
 19 37  1  0
 20 38  1  0
 23 39  1  0
 23 40  1  0
 23 41  1  0
 24 42  1  0
 24 43  1  0
 24 44  1  0
 25 45  1  0
 25 46  1  0
 25 47  1  0
M  END
>  <meeko>  (5) 
{"is_sidechain": [false], "free_energy": -7.263, "intermolecular_energy": -9.079, "internal_energy": -0.288}

$$$$
cand_038_out
     RDKit          3D

 47 49  0  0  0  0  0  0  0  0999 V2000
  180.3520   20.1310   45.1840 C   0  0  0  0  0  0  0  0  0  0  0  0
  178.9110   20.4250   45.5860 C   0  0  0  0  0  0  0  0  0  0  0  0
  178.7990   20.9130   47.0160 C   0  0  0  0  0  0  0  0  0  0  0  0
  179.9740   21.5420   47.5090 C   0  0  0  0  0  0  0  0  0  0  0  0
  180.0670   22.0740   48.7970 C   0  0  0  0  0  0  0  0  0  0  0  0
  181.3040   22.7060   49.3030 C   0  0  0  0  0  0  0  0  0  0  0  0
  181.4380   24.0300   48.8990 O   0  0  0  0  0  0  0  0  0  0  0  0
  182.5420   24.7360   49.2990 C   0  0  0  0  0  0  0  0  0  0  0  0
  182.6290   26.0660   48.8830 C   0  0  0  0  0  0  0  0  0  0  0  0
  183.7290   26.8420   49.2530 C   0  0  0  0  0  0  0  0  0  0  0  0
  184.7430   26.2890   50.0390 C   0  0  0  0  0  0  0  0  0  0  0  0
  184.6550   24.9620   50.4520 C   0  0  0  0  0  0  0  0  0  0  0  0
  185.6830   24.4840   51.2180 O   0  0  0  0  0  0  0  0  0  0  0  0
  183.5530   24.1860   50.0810 C   0  0  0  0  0  0  0  0  0  0  0  0
  183.4210   22.7880   50.4940 C   0  0  0  0  0  0  0  0  0  0  0  0
  184.2740   22.2290   51.1790 O   0  0  0  0  0  0  0  0  0  0  0  0
  182.2110   22.0550   50.0550 C   0  0  0  0  0  0  0  0  0  0  0  0
  182.1040   20.7310   50.4400 O   0  0  0  0  0  0  0  0  0  0  0  0
  178.9560   21.9510   49.6230 C   0  0  0  0  0  0  0  0  0  0  0  0
  177.7870   21.3320   49.1610 C   0  0  0  0  0  0  0  0  0  0  0  0
  177.6570   20.8000   47.8540 C   0  0  0  0  0  0  0  0  0  0  0  0
  176.3180   20.1210   47.4550 C   0  0  0  0  0  0  0  0  0  0  0  0
  176.4990   18.8590   46.5610 C   0  0  0  0  0  0  0  0  0  0  0  0
  175.5300   19.6140   48.6840 C   0  0  0  0  0  0  0  0  0  0  0  0
  175.4630   21.0980   46.6190 C   0  0  0  0  0  0  0  0  0  0  0  0
  180.9665   20.0056   46.0877 H   0  0  0  0  0  0  0  0  0  0  0  0
  180.3851   19.2076   44.5871 H   0  0  0  0  0  0  0  0  0  0  0  0
  180.7441   20.9676   44.5871 H   0  0  0  0  0  0  0  0  0  0  0  0
  178.5081   21.1988   44.9160 H   0  0  0  0  0  0  0  0  0  0  0  0
  178.3422   19.4869   45.5060 H   0  0  0  0  0  0  0  0  0  0  0  0
  180.8494   21.6131   46.8466 H   0  0  0  0  0  0  0  0  0  0  0  0
  181.8312   26.5022   48.2640 H   0  0  0  0  0  0  0  0  0  0  0  0
  183.7974   27.8898   48.9253 H   0  0  0  0  0  0  0  0  0  0  0  0
  185.6093   26.9007   50.3311 H   0  0  0  0  0  0  0  0  0  0  0  0
  186.5680   24.6890   50.9940 H   0  0  0  0  0  0  0  0  0  0  0  0
  181.3550   20.4440   50.9260 H   0  0  0  0  0  0  0  0  0  0  0  0
  178.9948   22.3436   50.6498 H   0  0  0  0  0  0  0  0  0  0  0  0
  176.9293   21.2553   49.8454 H   0  0  0  0  0  0  0  0  0  0  0  0
  176.6261   17.9724   47.1996 H   0  0  0  0  0  0  0  0  0  0  0  0
  175.6103   18.7290   45.9259 H   0  0  0  0  0  0  0  0  0  0  0  0
  177.3884   18.9840   45.9259 H   0  0  0  0  0  0  0  0  0  0  0  0
  176.0366   19.9400   49.6044 H   0  0  0  0  0  0  0  0  0  0  0  0
  174.5103   20.0259   48.6612 H   0  0  0  0  0  0  0  0  0  0  0  0
  175.4822   18.5153   48.6612 H   0  0  0  0  0  0  0  0  0  0  0  0
  174.8902   21.7525   47.2924 H   0  0  0  0  0  0  0  0  0  0  0  0
  176.1207   21.7102   45.9845 H   0  0  0  0  0  0  0  0  0  0  0  0
  174.7690   20.5272   45.9845 H   0  0  0  0  0  0  0  0  0  0  0  0
  1  2  1  0
  2  3  1  0
  3  4  2  0
  4  5  1  0
  5  6  1  0
  6  7  1  0
  7  8  1  0
  8  9  2  0
  9 10  1  0
 10 11  2  0
 11 12  1  0
 12 13  1  0
 12 14  2  0
 14 15  1  0
 15 16  2  0
 15 17  1  0
 17 18  1  0
  5 19  2  0
 19 20  1  0
 20 21  2  0
 21 22  1  0
 22 23  1  0
 22 24  1  0
 22 25  1  0
 21  3  1  0
 17  6  2  0
 14  8  1  0
  1 26  1  0
  1 27  1  0
  1 28  1  0
  2 29  1  0
  2 30  1  0
  4 31  1  0
  9 32  1  0
 10 33  1  0
 11 34  1  0
 13 35  1  0
 18 36  1  0
 19 37  1  0
 20 38  1  0
 23 39  1  0
 23 40  1  0
 23 41  1  0
 24 42  1  0
 24 43  1  0
 24 44  1  0
 25 45  1  0
 25 46  1  0
 25 47  1  0
M  END
>  <meeko>  (6) 
{"is_sidechain": [false], "free_energy": -7.259, "intermolecular_energy": -8.976, "internal_energy": -0.386}

$$$$
cand_038_out
     RDKit          3D

 47 49  0  0  0  0  0  0  0  0999 V2000
  179.1300   23.9560   48.0080 C   0  0  0  0  0  0  0  0  0  0  0  0
  177.8940   23.5120   47.2320 C   0  0  0  0  0  0  0  0  0  0  0  0
  177.0710   22.4920   47.9920 C   0  0  0  0  0  0  0  0  0  0  0  0
  176.2040   23.0550   48.9680 C   0  0  0  0  0  0  0  0  0  0  0  0
  175.3520   22.2850   49.7620 C   0  0  0  0  0  0  0  0  0  0  0  0
  174.4720   22.8840   50.7870 C   0  0  0  0  0  0  0  0  0  0  0  0
  175.1580   23.2450   51.9430 O   0  0  0  0  0  0  0  0  0  0  0  0
  174.4610   23.8140   52.9760 C   0  0  0  0  0  0  0  0  0  0  0  0
  175.1900   24.1740   54.1110 C   0  0  0  0  0  0  0  0  0  0  0  0
  174.5420   24.7570   55.2010 C   0  0  0  0  0  0  0  0  0  0  0  0
  173.1630   24.9800   55.1580 C   0  0  0  0  0  0  0  0  0  0  0  0
  172.4370   24.6190   54.0260 C   0  0  0  0  0  0  0  0  0  0  0  0
  171.0920   24.8650   54.0510 O   0  0  0  0  0  0  0  0  0  0  0  0
  173.0880   24.0360   52.9350 C   0  0  0  0  0  0  0  0  0  0  0  0
  172.3630   23.6430   51.7250 C   0  0  0  0  0  0  0  0  0  0  0  0
  171.1480   23.8000   51.6150 O   0  0  0  0  0  0  0  0  0  0  0  0
  173.1460   23.0410   50.6220 C   0  0  0  0  0  0  0  0  0  0  0  0
  172.4480   22.6610   49.4900 O   0  0  0  0  0  0  0  0  0  0  0  0
  175.3860   20.9060   49.5870 C   0  0  0  0  0  0  0  0  0  0  0  0
  176.2350   20.3270   48.6350 C   0  0  0  0  0  0  0  0  0  0  0  0
  177.0950   21.0840   47.8030 C   0  0  0  0  0  0  0  0  0  0  0  0
  178.0050   20.3330   46.7910 C   0  0  0  0  0  0  0  0  0  0  0  0
  178.0280   20.9780   45.3740 C   0  0  0  0  0  0  0  0  0  0  0  0
  179.4860   20.3180   47.2340 C   0  0  0  0  0  0  0  0  0  0  0  0
  177.4800   18.8960   46.5800 C   0  0  0  0  0  0  0  0  0  0  0  0
  178.9306   23.8844   49.0874 H   0  0  0  0  0  0  0  0  0  0  0  0
  179.9790   23.3066   47.7481 H   0  0  0  0  0  0  0  0  0  0  0  0
  179.3717   24.9972   47.7481 H   0  0  0  0  0  0  0  0  0  0  0  0
  177.2671   24.3934   47.0317 H   0  0  0  0  0  0  0  0  0  0  0  0
  178.2352   23.0399   46.2989 H   0  0  0  0  0  0  0  0  0  0  0  0
  176.2045   24.1466   49.1037 H   0  0  0  0  0  0  0  0  0  0  0  0
  176.2753   23.9981   54.1462 H   0  0  0  0  0  0  0  0  0  0  0  0
  175.1171   25.0412   56.0946 H   0  0  0  0  0  0  0  0  0  0  0  0
  172.6521   25.4398   56.0168 H   0  0  0  0  0  0  0  0  0  0  0  0
  170.7670   25.6550   54.4340 H   0  0  0  0  0  0  0  0  0  0  0  0
  171.5720   22.9670   49.3550 H   0  0  0  0  0  0  0  0  0  0  0  0
  174.7396   20.2631   50.2025 H   0  0  0  0  0  0  0  0  0  0  0  0
  176.2335   19.2321   48.5287 H   0  0  0  0  0  0  0  0  0  0  0  0
  178.0670   22.0731   45.4702 H   0  0  0  0  0  0  0  0  0  0  0  0
  178.9142   20.6263   44.8254 H   0  0  0  0  0  0  0  0  0  0  0  0
  177.1190   20.6903   44.8254 H   0  0  0  0  0  0  0  0  0  0  0  0
  179.5401   20.3175   48.3327 H   0  0  0  0  0  0  0  0  0  0  0  0
  179.9768   19.4148   46.8423 H   0  0  0  0  0  0  0  0  0  0  0  0
  179.9950   21.2110   46.8423 H   0  0  0  0  0  0  0  0  0  0  0  0
  177.3067   18.4217   47.5573 H   0  0  0  0  0  0  0  0  0  0  0  0
  176.5361   18.9296   46.0162 H   0  0  0  0  0  0  0  0  0  0  0  0
  178.2233   18.3132   46.0162 H   0  0  0  0  0  0  0  0  0  0  0  0
  1  2  1  0
  2  3  1  0
  3  4  2  0
  4  5  1  0
  5  6  1  0
  6  7  1  0
  7  8  1  0
  8  9  2  0
  9 10  1  0
 10 11  2  0
 11 12  1  0
 12 13  1  0
 12 14  2  0
 14 15  1  0
 15 16  2  0
 15 17  1  0
 17 18  1  0
  5 19  2  0
 19 20  1  0
 20 21  2  0
 21 22  1  0
 22 23  1  0
 22 24  1  0
 22 25  1  0
 21  3  1  0
 17  6  2  0
 14  8  1  0
  1 26  1  0
  1 27  1  0
  1 28  1  0
  2 29  1  0
  2 30  1  0
  4 31  1  0
  9 32  1  0
 10 33  1  0
 11 34  1  0
 13 35  1  0
 18 36  1  0
 19 37  1  0
 20 38  1  0
 23 39  1  0
 23 40  1  0
 23 41  1  0
 24 42  1  0
 24 43  1  0
 24 44  1  0
 25 45  1  0
 25 46  1  0
 25 47  1  0
M  END
>  <meeko>  (7) 
{"is_sidechain": [false], "free_energy": -7.152, "intermolecular_energy": -8.672, "internal_energy": -0.558}

$$$$
cand_038_out
     RDKit          3D

 47 49  0  0  0  0  0  0  0  0999 V2000
  175.2500   26.3030   51.9850 C   0  0  0  0  0  0  0  0  0  0  0  0
  175.0840   26.2470   50.4690 C   0  0  0  0  0  0  0  0  0  0  0  0
  174.9860   24.8260   49.9520 C   0  0  0  0  0  0  0  0  0  0  0  0
  176.2430   24.2110   49.7000 C   0  0  0  0  0  0  0  0  0  0  0  0
  176.3670   22.9000   49.2360 C   0  0  0  0  0  0  0  0  0  0  0  0
  177.6810   22.2820   48.9580 C   0  0  0  0  0  0  0  0  0  0  0  0
  177.7760   21.7720   47.6670 O   0  0  0  0  0  0  0  0  0  0  0  0
  178.9440   21.1720   47.2760 C   0  0  0  0  0  0  0  0  0  0  0  0
  179.0010   20.6870   45.9680 C   0  0  0  0  0  0  0  0  0  0  0  0
  180.1610   20.0620   45.5070 C   0  0  0  0  0  0  0  0  0  0  0  0
  181.2640   19.9200   46.3520 C   0  0  0  0  0  0  0  0  0  0  0  0
  181.2050   20.4040   47.6560 C   0  0  0  0  0  0  0  0  0  0  0  0
  182.3190   20.2310   48.4300 O   0  0  0  0  0  0  0  0  0  0  0  0
  180.0430   21.0290   48.1180 C   0  0  0  0  0  0  0  0  0  0  0  0
  179.9390   21.5520   49.4810 C   0  0  0  0  0  0  0  0  0  0  0  0
  180.8640   21.4590   50.2860 O   0  0  0  0  0  0  0  0  0  0  0  0
  178.6690   22.2050   49.8690 C   0  0  0  0  0  0  0  0  0  0  0  0
  178.5770   22.6830   51.1640 O   0  0  0  0  0  0  0  0  0  0  0  0
  175.1960   22.1920   48.9950 C   0  0  0  0  0  0  0  0  0  0  0  0
  173.9450   22.7770   49.2320 C   0  0  0  0  0  0  0  0  0  0  0  0
  173.7890   24.0980   49.7210 C   0  0  0  0  0  0  0  0  0  0  0  0
  172.3510   24.6490   49.9320 C   0  0  0  0  0  0  0  0  0  0  0  0
  172.2480   26.1960   49.7880 C   0  0  0  0  0  0  0  0  0  0  0  0
  171.3530   24.0960   48.8900 C   0  0  0  0  0  0  0  0  0  0  0  0
  171.8760   24.3370   51.3680 C   0  0  0  0  0  0  0  0  0  0  0  0
  174.3137   25.9871   52.4683 H   0  0  0  0  0  0  0  0  0  0  0  0
  176.0651   25.6301   52.2897 H   0  0  0  0  0  0  0  0  0  0  0  0
  175.4909   27.3321   52.2897 H   0  0  0  0  0  0  0  0  0  0  0  0
  174.1663   26.7874   50.1937 H   0  0  0  0  0  0  0  0  0  0  0  0
  175.9740   26.7085   50.0163 H   0  0  0  0  0  0  0  0  0  0  0  0
  177.1585   24.7941   49.8786 H   0  0  0  0  0  0  0  0  0  0  0  0
  178.1329   20.7973   45.3015 H   0  0  0  0  0  0  0  0  0  0  0  0
  180.2065   19.6806   44.4762 H   0  0  0  0  0  0  0  0  0  0  0  0
  182.1774   19.4268   45.9879 H   0  0  0  0  0  0  0  0  0  0  0  0
  183.1270   20.6360   48.1850 H   0  0  0  0  0  0  0  0  0  0  0  0
  177.9610   23.3590   51.3710 H   0  0  0  0  0  0  0  0  0  0  0  0
  175.2516   21.1615   48.6142 H   0  0  0  0  0  0  0  0  0  0  0  0
  173.0417   22.1831   49.0290 H   0  0  0  0  0  0  0  0  0  0  0  0
  172.2174   26.6560   50.7867 H   0  0  0  0  0  0  0  0  0  0  0  0
  173.1231   26.5721   49.2378 H   0  0  0  0  0  0  0  0  0  0  0  0
  171.3308   26.4528   49.2378 H   0  0  0  0  0  0  0  0  0  0  0  0
  170.5044   23.6258   49.4085 H   0  0  0  0  0  0  0  0  0  0  0  0
  170.9867   24.9199   48.2598 H   0  0  0  0  0  0  0  0  0  0  0  0
  171.8573   23.3487   48.2598 H   0  0  0  0  0  0  0  0  0  0  0  0
  172.5692   24.7923   52.0906 H   0  0  0  0  0  0  0  0  0  0  0  0
  170.8671   24.7489   51.5181 H   0  0  0  0  0  0  0  0  0  0  0  0
  171.8533   23.2475   51.5181 H   0  0  0  0  0  0  0  0  0  0  0  0
  1  2  1  0
  2  3  1  0
  3  4  2  0
  4  5  1  0
  5  6  1  0
  6  7  1  0
  7  8  1  0
  8  9  2  0
  9 10  1  0
 10 11  2  0
 11 12  1  0
 12 13  1  0
 12 14  2  0
 14 15  1  0
 15 16  2  0
 15 17  1  0
 17 18  1  0
  5 19  2  0
 19 20  1  0
 20 21  2  0
 21 22  1  0
 22 23  1  0
 22 24  1  0
 22 25  1  0
 21  3  1  0
 17  6  2  0
 14  8  1  0
  1 26  1  0
  1 27  1  0
  1 28  1  0
  2 29  1  0
  2 30  1  0
  4 31  1  0
  9 32  1  0
 10 33  1  0
 11 34  1  0
 13 35  1  0
 18 36  1  0
 19 37  1  0
 20 38  1  0
 23 39  1  0
 23 40  1  0
 23 41  1  0
 24 42  1  0
 24 43  1  0
 24 44  1  0
 25 45  1  0
 25 46  1  0
 25 47  1  0
M  END
>  <meeko>  (8) 
{"is_sidechain": [false], "free_energy": -7.077, "intermolecular_energy": -8.976, "internal_energy": -0.162}

$$$$
cand_038_out
     RDKit          3D

 47 49  0  0  0  0  0  0  0  0999 V2000
  172.8410   23.7660   49.2270 C   0  0  0  0  0  0  0  0  0  0  0  0
  174.0500   24.6080   49.6200 C   0  0  0  0  0  0  0  0  0  0  0  0
  175.1610   23.7760   50.2270 C   0  0  0  0  0  0  0  0  0  0  0  0
  175.9720   23.1030   49.2720 C   0  0  0  0  0  0  0  0  0  0  0  0
  177.0570   22.2990   49.6290 C   0  0  0  0  0  0  0  0  0  0  0  0
  177.8760   21.5890   48.6260 C   0  0  0  0  0  0  0  0  0  0  0  0
  179.1640   22.1030   48.5180 O   0  0  0  0  0  0  0  0  0  0  0  0
  180.0320   21.5350   47.6230 C   0  0  0  0  0  0  0  0  0  0  0  0
  181.3180   22.0720   47.5580 C   0  0  0  0  0  0  0  0  0  0  0  0
  182.2520   21.5420   46.6650 C   0  0  0  0  0  0  0  0  0  0  0  0
  181.8990   20.4740   45.8360 C   0  0  0  0  0  0  0  0  0  0  0  0
  180.6150   19.9400   45.9020 C   0  0  0  0  0  0  0  0  0  0  0  0
  180.3370   18.8970   45.0610 O   0  0  0  0  0  0  0  0  0  0  0  0
  179.6820   20.4710   46.7960 C   0  0  0  0  0  0  0  0  0  0  0  0
  178.3220   19.9390   46.8970 C   0  0  0  0  0  0  0  0  0  0  0  0
  177.9340   19.0060   46.1960 O   0  0  0  0  0  0  0  0  0  0  0  0
  177.4120   20.5670   47.8820 C   0  0  0  0  0  0  0  0  0  0  0  0
  176.1250   20.0650   47.9590 O   0  0  0  0  0  0  0  0  0  0  0  0
  177.3230   22.1480   50.9850 C   0  0  0  0  0  0  0  0  0  0  0  0
  176.5360   22.7970   51.9460 C   0  0  0  0  0  0  0  0  0  0  0  0
  175.4420   23.6330   51.6120 C   0  0  0  0  0  0  0  0  0  0  0  0
  174.6290   24.2910   52.7620 C   0  0  0  0  0  0  0  0  0  0  0  0
  174.5520   25.8440   52.6630 C   0  0  0  0  0  0  0  0  0  0  0  0
  173.1540   23.8300   52.7750 C   0  0  0  0  0  0  0  0  0  0  0  0
  175.3080   23.9990   54.1180 C   0  0  0  0  0  0  0  0  0  0  0  0
  172.3309   23.4108   50.1346 H   0  0  0  0  0  0  0  0  0  0  0  0
  172.1467   24.3769   48.6315 H   0  0  0  0  0  0  0  0  0  0  0  0
  173.1732   22.9029   48.6315 H   0  0  0  0  0  0  0  0  0  0  0  0
  174.4365   25.1119   48.7218 H   0  0  0  0  0  0  0  0  0  0  0  0
  173.7211   25.3330   50.3791 H   0  0  0  0  0  0  0  0  0  0  0  0
  175.7342   23.2209   48.2045 H   0  0  0  0  0  0  0  0  0  0  0  0
  181.5964   22.9129   48.2102 H   0  0  0  0  0  0  0  0  0  0  0  0
  183.2659   21.9655   46.6143 H   0  0  0  0  0  0  0  0  0  0  0  0
  182.6342   20.0560   45.1326 H   0  0  0  0  0  0  0  0  0  0  0  0
  180.9010   18.7170   44.3360 H   0  0  0  0  0  0  0  0  0  0  0  0
  175.5060   20.2590   47.2830 H   0  0  0  0  0  0  0  0  0  0  0  0
  178.1606   21.5120   51.3074 H   0  0  0  0  0  0  0  0  0  0  0  0
  176.7789   22.6505   53.0088 H   0  0  0  0  0  0  0  0  0  0  0  0
  174.5306   26.2753   53.6747 H   0  0  0  0  0  0  0  0  0  0  0  0
  175.4326   26.2210   52.1222 H   0  0  0  0  0  0  0  0  0  0  0  0
  173.6385   26.1321   52.1222 H   0  0  0  0  0  0  0  0  0  0  0  0
  172.8124   23.7232   53.8151 H   0  0  0  0  0  0  0  0  0  0  0  0
  172.5320   24.5766   52.2596 H   0  0  0  0  0  0  0  0  0  0  0  0
  173.0678   22.8621   52.2596 H   0  0  0  0  0  0  0  0  0  0  0  0
  174.6327   24.2894   54.9363 H   0  0  0  0  0  0  0  0  0  0  0  0
  175.5327   22.9247   54.1918 H   0  0  0  0  0  0  0  0  0  0  0  0
  176.2423   24.5749   54.1918 H   0  0  0  0  0  0  0  0  0  0  0  0
  1  2  1  0
  2  3  1  0
  3  4  2  0
  4  5  1  0
  5  6  1  0
  6  7  1  0
  7  8  1  0
  8  9  2  0
  9 10  1  0
 10 11  2  0
 11 12  1  0
 12 13  1  0
 12 14  2  0
 14 15  1  0
 15 16  2  0
 15 17  1  0
 17 18  1  0
  5 19  2  0
 19 20  1  0
 20 21  2  0
 21 22  1  0
 22 23  1  0
 22 24  1  0
 22 25  1  0
 21  3  1  0
 17  6  2  0
 14  8  1  0
  1 26  1  0
  1 27  1  0
  1 28  1  0
  2 29  1  0
  2 30  1  0
  4 31  1  0
  9 32  1  0
 10 33  1  0
 11 34  1  0
 13 35  1  0
 18 36  1  0
 19 37  1  0
 20 38  1  0
 23 39  1  0
 23 40  1  0
 23 41  1  0
 24 42  1  0
 24 43  1  0
 24 44  1  0
 25 45  1  0
 25 46  1  0
 25 47  1  0
M  END
>  <meeko>  (9) 
{"is_sidechain": [false], "free_energy": -7.074, "intermolecular_energy": -8.637, "internal_energy": -0.498}

$$$$
