cand_045_out
     RDKit          3D

 35 37  0  0  0  0  0  0  0  0999 V2000
  182.0300   15.1340   42.7710 C   0  0  0  0  0  0  0  0  0  0  0  0
  181.3290   16.1180   43.6670 C   0  0  0  0  0  0  0  0  0  0  0  0
  181.6280   17.4830   43.5530 C   0  0  0  0  0  0  0  0  0  0  0  0
  180.9970   18.4270   44.3690 C   0  0  0  0  0  0  0  0  0  0  0  0
  180.0560   18.0310   45.3250 C   0  0  0  0  0  0  0  0  0  0  0  0
  179.3560   19.0110   46.1820 C   0  0  0  0  0  0  0  0  0  0  0  0
  177.9760   18.8440   46.1770 O   0  0  0  0  0  0  0  0  0  0  0  0
  177.2020   19.6830   46.9370 C   0  0  0  0  0  0  0  0  0  0  0  0
  175.8220   19.4850   46.8950 C   0  0  0  0  0  0  0  0  0  0  0  0
  174.9760   20.3040   47.6450 C   0  0  0  0  0  0  0  0  0  0  0  0
  175.5110   21.3240   48.4360 C   0  0  0  0  0  0  0  0  0  0  0  0
  176.8900   21.5190   48.4760 C   0  0  0  0  0  0  0  0  0  0  0  0
  177.3460   22.5340   49.2720 O   0  0  0  0  0  0  0  0  0  0  0  0
  177.7350   20.6980   47.7260 C   0  0  0  0  0  0  0  0  0  0  0  0
  179.1880   20.8690   47.7400 C   0  0  0  0  0  0  0  0  0  0  0  0
  179.7340   21.7390   48.4160 O   0  0  0  0  0  0  0  0  0  0  0  0
  179.9950   19.9490   46.9050 C   0  0  0  0  0  0  0  0  0  0  0  0
  181.3680   20.1100   46.9400 O   0  0  0  0  0  0  0  0  0  0  0  0
  179.7490   16.6650   45.4300 C   0  0  0  0  0  0  0  0  0  0  0  0
  180.3730   15.7020   44.6150 C   0  0  0  0  0  0  0  0  0  0  0  0
  180.0080   14.2480   44.7810 C   0  0  0  0  0  0  0  0  0  0  0  0
  180.8150   13.5760   45.6520 F   0  0  0  0  0  0  0  0  0  0  0  0
  182.5593   14.3910   43.3856 H   0  0  0  0  0  0  0  0  0  0  0  0
  181.2902   14.6246   42.1361 H   0  0  0  0  0  0  0  0  0  0  0  0
  182.7532   15.6668   42.1361 H   0  0  0  0  0  0  0  0  0  0  0  0
  182.3692   17.8159   42.8115 H   0  0  0  0  0  0  0  0  0  0  0  0
  181.2435   19.4932   44.2578 H   0  0  0  0  0  0  0  0  0  0  0  0
  175.4002   18.6834   46.2709 H   0  0  0  0  0  0  0  0  0  0  0  0
  173.8878   20.1463   47.6132 H   0  0  0  0  0  0  0  0  0  0  0  0
  174.8452   21.9714   49.0256 H   0  0  0  0  0  0  0  0  0  0  0  0
  177.2640   22.4720   50.2040 H   0  0  0  0  0  0  0  0  0  0  0  0
  181.9180   19.3880   47.1710 H   0  0  0  0  0  0  0  0  0  0  0  0
  179.0015   16.3390   46.1682 H   0  0  0  0  0  0  0  0  0  0  0  0
  178.9735   14.1896   45.1504 H   0  0  0  0  0  0  0  0  0  0  0  0
  180.1298   13.7716   43.7970 H   0  0  0  0  0  0  0  0  0  0  0  0
  1  2  1  0
  2  3  2  0
  3  4  1  0
  4  5  2  0
  5  6  1  0
  6  7  1  0
  7  8  1  0
  8  9  2  0
  9 10  1  0
 10 11  2  0
 11 12  1  0
 12 13  1  0
 12 14  2  0
 14 15  1  0
 15 16  2  0
 15 17  1  0
 17 18  1  0
  5 19  1  0
 19 20  2  0
 20 21  1  0
 21 22  1  0
 20  2  1  0
 17  6  2  0
 14  8  1  0
  1 23  1  0
  1 24  1  0
  1 25  1  0
  3 26  1  0
  4 27  1  0
  9 28  1  0
 10 29  1  0
 11 30  1  0
 13 31  1  0
 18 32  1  0
 19 33  1  0
 21 34  1  0
 21 35  1  0
M  END
>  <meeko>  (1) 
{"is_sidechain": [false], "free_energy": -7.657, "intermolecular_energy": -9.0, "internal_energy": -0.229}

$$$$
cand_045_out
     RDKit          3D

 35 37  0  0  0  0  0  0  0  0999 V2000
  171.7250   24.8720   49.4660 C   0  0  0  0  0  0  0  0  0  0  0  0
  173.1320   24.3460   49.5510 C   0  0  0  0  0  0  0  0  0  0  0  0
  173.3840   23.0060   49.2260 C   0  0  0  0  0  0  0  0  0  0  0  0
  174.6780   22.4810   49.2930 C   0  0  0  0  0  0  0  0  0  0  0  0
  175.7530   23.2800   49.6960 C   0  0  0  0  0  0  0  0  0  0  0  0
  177.1350   22.7570   49.7520 C   0  0  0  0  0  0  0  0  0  0  0  0
  177.5640   22.2340   48.5380 O   0  0  0  0  0  0  0  0  0  0  0  0
  178.8320   21.7200   48.4470 C   0  0  0  0  0  0  0  0  0  0  0  0
  179.2180   21.1990   47.2110 C   0  0  0  0  0  0  0  0  0  0  0  0
  180.4960   20.6600   47.0500 C   0  0  0  0  0  0  0  0  0  0  0  0
  181.3880   20.6410   48.1250 C   0  0  0  0  0  0  0  0  0  0  0  0
  181.0000   21.1630   49.3570 C   0  0  0  0  0  0  0  0  0  0  0  0
  181.9230   21.1140   50.3660 O   0  0  0  0  0  0  0  0  0  0  0  0
  179.7210   21.7020   49.5170 C   0  0  0  0  0  0  0  0  0  0  0  0
  179.2740   22.2600   50.7940 C   0  0  0  0  0  0  0  0  0  0  0  0
  180.0030   22.2870   51.7840 O   0  0  0  0  0  0  0  0  0  0  0  0
  177.8980   22.8040   50.8600 C   0  0  0  0  0  0  0  0  0  0  0  0
  177.4920   23.3440   52.0670 O   0  0  0  0  0  0  0  0  0  0  0  0
  175.5020   24.6240   50.0110 C   0  0  0  0  0  0  0  0  0  0  0  0
  174.2060   25.1690   49.9460 C   0  0  0  0  0  0  0  0  0  0  0  0
  173.9960   26.6190   50.3050 C   0  0  0  0  0  0  0  0  0  0  0  0
  175.0240   27.4320   49.9250 F   0  0  0  0  0  0  0  0  0  0  0  0
  171.3272   25.0207   50.4807 H   0  0  0  0  0  0  0  0  0  0  0  0
  171.7241   25.8312   48.9276 H   0  0  0  0  0  0  0  0  0  0  0  0
  171.0950   24.1487   48.9276 H   0  0  0  0  0  0  0  0  0  0  0  0
  172.5517   22.3582   48.9137 H   0  0  0  0  0  0  0  0  0  0  0  0
  174.8526   21.4283   49.0259 H   0  0  0  0  0  0  0  0  0  0  0  0
  178.5159   21.2130   46.3643 H   0  0  0  0  0  0  0  0  0  0  0  0
  180.8007   20.2500   46.0758 H   0  0  0  0  0  0  0  0  0  0  0  0
  182.3943   20.2149   47.9990 H   0  0  0  0  0  0  0  0  0  0  0  0
  182.3910   21.8880   50.6110 H   0  0  0  0  0  0  0  0  0  0  0  0
  176.6280   23.1760   52.3880 H   0  0  0  0  0  0  0  0  0  0  0  0
  176.3396   25.2683   50.3166 H   0  0  0  0  0  0  0  0  0  0  0  0
  173.0763   26.9690   49.8133 H   0  0  0  0  0  0  0  0  0  0  0  0
  173.9317   26.6729   51.4018 H   0  0  0  0  0  0  0  0  0  0  0  0
  1  2  1  0
  2  3  2  0
  3  4  1  0
  4  5  2  0
  5  6  1  0
  6  7  1  0
  7  8  1  0
  8  9  2  0
  9 10  1  0
 10 11  2  0
 11 12  1  0
 12 13  1  0
 12 14  2  0
 14 15  1  0
 15 16  2  0
 15 17  1  0
 17 18  1  0
  5 19  1  0
 19 20  2  0
 20 21  1  0
 21 22  1  0
 20  2  1  0
 17  6  2  0
 14  8  1  0
  1 23  1  0
  1 24  1  0
  1 25  1  0
  3 26  1  0
  4 27  1  0
  9 28  1  0
 10 29  1  0
 11 30  1  0
 13 31  1  0
 18 32  1  0
 19 33  1  0
 21 34  1  0
 21 35  1  0
M  END
>  <meeko>  (2) 
{"is_sidechain": [false], "free_energy": -7.192, "intermolecular_energy": -8.459, "internal_energy": -0.223}

$$$$
cand_045_out
     RDKit          3D

 35 37  0  0  0  0  0  0  0  0999 V2000
  176.2620   18.3690   46.1410 C   0  0  0  0  0  0  0  0  0  0  0  0
  176.2060   19.4450   47.1910 C   0  0  0  0  0  0  0  0  0  0  0  0
  175.0140   19.6510   47.8990 C   0  0  0  0  0  0  0  0  0  0  0  0
  174.9240   20.6410   48.8820 C   0  0  0  0  0  0  0  0  0  0  0  0
  176.0210   21.4570   49.1770 C   0  0  0  0  0  0  0  0  0  0  0  0
  175.9610   22.4940   50.2290 C   0  0  0  0  0  0  0  0  0  0  0  0
  175.4440   23.7000   49.7690 O   0  0  0  0  0  0  0  0  0  0  0  0
  175.3260   24.7490   50.6440 C   0  0  0  0  0  0  0  0  0  0  0  0
  174.8110   25.9420   50.1380 C   0  0  0  0  0  0  0  0  0  0  0  0
  174.6640   27.0500   50.9750 C   0  0  0  0  0  0  0  0  0  0  0  0
  175.0340   26.9640   52.3190 C   0  0  0  0  0  0  0  0  0  0  0  0
  175.5480   25.7710   52.8230 C   0  0  0  0  0  0  0  0  0  0  0  0
  175.8880   25.7560   54.1480 O   0  0  0  0  0  0  0  0  0  0  0  0
  175.6940   24.6630   51.9840 C   0  0  0  0  0  0  0  0  0  0  0  0
  176.2290   23.3920   52.4720 C   0  0  0  0  0  0  0  0  0  0  0  0
  176.5700   23.2360   53.6430 O   0  0  0  0  0  0  0  0  0  0  0  0
  176.3470   22.2800   51.5000 C   0  0  0  0  0  0  0  0  0  0  0  0
  176.8390   21.0780   51.9770 O   0  0  0  0  0  0  0  0  0  0  0  0
  177.2180   21.2430   48.4750 C   0  0  0  0  0  0  0  0  0  0  0  0
  177.3260   20.2480   47.4850 C   0  0  0  0  0  0  0  0  0  0  0  0
  178.6360   20.0710   46.7580 C   0  0  0  0  0  0  0  0  0  0  0  0
  178.7420   20.8280   45.6280 F   0  0  0  0  0  0  0  0  0  0  0  0
  176.3133   17.3839   46.6278 H   0  0  0  0  0  0  0  0  0  0  0  0
  175.3599   18.4215   45.5137 H   0  0  0  0  0  0  0  0  0  0  0  0
  177.1538   18.5149   45.5137 H   0  0  0  0  0  0  0  0  0  0  0  0
  174.1370   19.0249   47.6781 H   0  0  0  0  0  0  0  0  0  0  0  0
  173.9800   20.7797   49.4295 H   0  0  0  0  0  0  0  0  0  0  0  0
  174.5205   26.0103   49.0793 H   0  0  0  0  0  0  0  0  0  0  0  0
  174.2568   27.9906   50.5758 H   0  0  0  0  0  0  0  0  0  0  0  0
  174.9198   27.8368   52.9787 H   0  0  0  0  0  0  0  0  0  0  0  0
  176.7670   25.5550   54.4030 H   0  0  0  0  0  0  0  0  0  0  0  0
  176.2600   20.3530   52.1050 H   0  0  0  0  0  0  0  0  0  0  0  0
  178.0933   21.8685   48.7043 H   0  0  0  0  0  0  0  0  0  0  0  0
  179.4525   20.3494   47.4405 H   0  0  0  0  0  0  0  0  0  0  0  0
  178.6911   19.0176   46.4460 H   0  0  0  0  0  0  0  0  0  0  0  0
  1  2  1  0
  2  3  2  0
  3  4  1  0
  4  5  2  0
  5  6  1  0
  6  7  1  0
  7  8  1  0
  8  9  2  0
  9 10  1  0
 10 11  2  0
 11 12  1  0
 12 13  1  0
 12 14  2  0
 14 15  1  0
 15 16  2  0
 15 17  1  0
 17 18  1  0
  5 19  1  0
 19 20  2  0
 20 21  1  0
 21 22  1  0
 20  2  1  0
 17  6  2  0
 14  8  1  0
  1 23  1  0
  1 24  1  0
  1 25  1  0
  3 26  1  0
  4 27  1  0
  9 28  1  0
 10 29  1  0
 11 30  1  0
 13 31  1  0
 18 32  1  0
 19 33  1  0
 21 34  1  0
 21 35  1  0
M  END
>  <meeko>  (3) 
{"is_sidechain": [false], "free_energy": -7.174, "intermolecular_energy": -8.212, "internal_energy": -0.45}

$$$$
cand_045_out
     RDKit          3D

 35 37  0  0  0  0  0  0  0  0999 V2000
  185.1570   23.4470   48.1470 C   0  0  0  0  0  0  0  0  0  0  0  0
  183.7220   23.0680   48.3880 C   0  0  0  0  0  0  0  0  0  0  0  0
  183.4290   21.8160   48.9460 C   0  0  0  0  0  0  0  0  0  0  0  0
  182.1070   21.4280   49.1850 C   0  0  0  0  0  0  0  0  0  0  0  0
  181.0430   22.2780   48.8650 C   0  0  0  0  0  0  0  0  0  0  0  0
  179.6380   21.9030   49.1310 C   0  0  0  0  0  0  0  0  0  0  0  0
  178.9250   21.6230   47.9710 O   0  0  0  0  0  0  0  0  0  0  0  0
  177.6090   21.2550   48.0730 C   0  0  0  0  0  0  0  0  0  0  0  0
  176.9300   20.9920   46.8820 C   0  0  0  0  0  0  0  0  0  0  0  0
  175.5870   20.6110   46.9140 C   0  0  0  0  0  0  0  0  0  0  0  0
  174.9220   20.4950   48.1370 C   0  0  0  0  0  0  0  0  0  0  0  0
  175.6020   20.7580   49.3240 C   0  0  0  0  0  0  0  0  0  0  0  0
  174.8920   20.6240   50.4860 O   0  0  0  0  0  0  0  0  0  0  0  0
  176.9460   21.1380   49.2910 C   0  0  0  0  0  0  0  0  0  0  0  0
  177.6970   21.4230   50.5130 C   0  0  0  0  0  0  0  0  0  0  0  0
  177.1840   21.3360   51.6280 O   0  0  0  0  0  0  0  0  0  0  0  0
  179.1160   21.8220   50.3690 C   0  0  0  0  0  0  0  0  0  0  0  0
  179.8210   22.0730   51.5330 O   0  0  0  0  0  0  0  0  0  0  0  0
  181.3390   23.5360   48.3170 C   0  0  0  0  0  0  0  0  0  0  0  0
  182.6640   23.9430   48.0720 C   0  0  0  0  0  0  0  0  0  0  0  0
  182.9190   25.3040   47.4730 C   0  0  0  0  0  0  0  0  0  0  0  0
  183.3020   25.2630   46.1640 F   0  0  0  0  0  0  0  0  0  0  0  0
  185.6676   23.5819   49.1119 H   0  0  0  0  0  0  0  0  0  0  0  0
  185.6559   22.6498   47.5764 H   0  0  0  0  0  0  0  0  0  0  0  0
  185.1972   24.3866   47.5764 H   0  0  0  0  0  0  0  0  0  0  0  0
  184.2502   21.1293   49.1993 H   0  0  0  0  0  0  0  0  0  0  0  0
  181.9013   20.4431   49.6297 H   0  0  0  0  0  0  0  0  0  0  0  0
  177.4527   21.0849   45.9186 H   0  0  0  0  0  0  0  0  0  0  0  0
  175.0524   20.4021   45.9756 H   0  0  0  0  0  0  0  0  0  0  0  0
  173.8636   20.1966   48.1627 H   0  0  0  0  0  0  0  0  0  0  0  0
  173.9580   20.7040   50.4750 H   0  0  0  0  0  0  0  0  0  0  0  0
  179.8970   22.9490   51.8540 H   0  0  0  0  0  0  0  0  0  0  0  0
  180.5141   24.2215   48.0727 H   0  0  0  0  0  0  0  0  0  0  0  0
  181.9939   25.8947   47.5461 H   0  0  0  0  0  0  0  0  0  0  0  0
  183.7491   25.7538   48.0374 H   0  0  0  0  0  0  0  0  0  0  0  0
  1  2  1  0
  2  3  2  0
  3  4  1  0
  4  5  2  0
  5  6  1  0
  6  7  1  0
  7  8  1  0
  8  9  2  0
  9 10  1  0
 10 11  2  0
 11 12  1  0
 12 13  1  0
 12 14  2  0
 14 15  1  0
 15 16  2  0
 15 17  1  0
 17 18  1  0
  5 19  1  0
 19 20  2  0
 20 21  1  0
 21 22  1  0
 20  2  1  0
 17  6  2  0
 14  8  1  0
  1 23  1  0
  1 24  1  0
  1 25  1  0
  3 26  1  0
  4 27  1  0
  9 28  1  0
 10 29  1  0
 11 30  1  0
 13 31  1  0
 18 32  1  0
 19 33  1  0
 21 34  1  0
 21 35  1  0
M  END
>  <meeko>  (4) 
{"is_sidechain": [false], "free_energy": -7.165, "intermolecular_energy": -8.282, "internal_energy": -0.369}

$$$$
cand_045_out
     RDKit          3D

 35 37  0  0  0  0  0  0  0  0999 V2000
  177.6260   20.6340   46.1490 C   0  0  0  0  0  0  0  0  0  0  0  0
  176.8090   21.1740   47.2910 C   0  0  0  0  0  0  0  0  0  0  0  0
  176.9700   22.5120   47.6760 C   0  0  0  0  0  0  0  0  0  0  0  0
  176.2280   23.0490   48.7330 C   0  0  0  0  0  0  0  0  0  0  0  0
  175.3130   22.2600   49.4370 C   0  0  0  0  0  0  0  0  0  0  0  0
  174.4980   22.8100   50.5420 C   0  0  0  0  0  0  0  0  0  0  0  0
  175.2540   23.1290   51.6640 O   0  0  0  0  0  0  0  0  0  0  0  0
  174.6230   23.6550   52.7620 C   0  0  0  0  0  0  0  0  0  0  0  0
  175.4200   23.9530   53.8680 C   0  0  0  0  0  0  0  0  0  0  0  0
  174.8420   24.4910   55.0190 C   0  0  0  0  0  0  0  0  0  0  0  0
  173.4670   24.7310   55.0650 C   0  0  0  0  0  0  0  0  0  0  0  0
  172.6740   24.4330   53.9580 C   0  0  0  0  0  0  0  0  0  0  0  0
  171.3350   24.6940   54.0700 O   0  0  0  0  0  0  0  0  0  0  0  0
  173.2540   23.8950   52.8070 C   0  0  0  0  0  0  0  0  0  0  0  0
  172.4580   23.5690   51.6240 C   0  0  0  0  0  0  0  0  0  0  0  0
  171.2430   23.7570   51.5840 O   0  0  0  0  0  0  0  0  0  0  0  0
  173.1680   22.9980   50.4560 C   0  0  0  0  0  0  0  0  0  0  0  0
  172.4070   22.7080   49.3370 O   0  0  0  0  0  0  0  0  0  0  0  0
  175.1450   20.9230   49.0440 C   0  0  0  0  0  0  0  0  0  0  0  0
  175.8820   20.3680   47.9810 C   0  0  0  0  0  0  0  0  0  0  0  0
  175.6640   18.9220   47.6090 C   0  0  0  0  0  0  0  0  0  0  0  0
  174.7320   18.7420   46.6300 F   0  0  0  0  0  0  0  0  0  0  0  0
  178.4819   20.0683   46.5458 H   0  0  0  0  0  0  0  0  0  0  0  0
  177.0015   19.9702   45.5331 H   0  0  0  0  0  0  0  0  0  0  0  0
  177.9920   21.4687   45.5331 H   0  0  0  0  0  0  0  0  0  0  0  0
  177.6895   23.1482   47.1397 H   0  0  0  0  0  0  0  0  0  0  0  0
  176.3657   24.1037   49.0136 H   0  0  0  0  0  0  0  0  0  0  0  0
  176.5031   23.7640   53.8328 H   0  0  0  0  0  0  0  0  0  0  0  0
  175.4702   24.7262   55.8908 H   0  0  0  0  0  0  0  0  0  0  0  0
  173.0110   25.1540   55.9723 H   0  0  0  0  0  0  0  0  0  0  0  0
  171.0450   25.5160   54.4140 H   0  0  0  0  0  0  0  0  0  0  0  0
  171.5850   22.2700   49.4310 H   0  0  0  0  0  0  0  0  0  0  0  0
  174.4195   20.2934   49.5800 H   0  0  0  0  0  0  0  0  0  0  0  0
  176.6201   18.5056   47.2590 H   0  0  0  0  0  0  0  0  0  0  0  0
  175.2880   18.4121   48.5082 H   0  0  0  0  0  0  0  0  0  0  0  0
  1  2  1  0
  2  3  2  0
  3  4  1  0
  4  5  2  0
  5  6  1  0
  6  7  1  0
  7  8  1  0
  8  9  2  0
  9 10  1  0
 10 11  2  0
 11 12  1  0
 12 13  1  0
 12 14  2  0
 14 15  1  0
 15 16  2  0
 15 17  1  0
 17 18  1  0
  5 19  1  0
 19 20  2  0
 20 21  1  0
 21 22  1  0
 20  2  1  0
 17  6  2  0
 14  8  1  0
  1 23  1  0
  1 24  1  0
  1 25  1  0
  3 26  1  0
  4 27  1  0
  9 28  1  0
 10 29  1  0
 11 30  1  0
 13 31  1  0
 18 32  1  0
 19 33  1  0
 21 34  1  0
 21 35  1  0
M  END
>  <meeko>  (5) 
{"is_sidechain": [false], "free_energy": -7.162, "intermolecular_energy": -8.294, "internal_energy": -0.354}

$$$$
cand_045_out
     RDKit          3D

 35 37  0  0  0  0  0  0  0  0999 V2000
  181.4720   20.8530   45.9560 C   0  0  0  0  0  0  0  0  0  0  0  0
  180.4230   21.2500   46.9580 C   0  0  0  0  0  0  0  0  0  0  0  0
  180.6390   22.3730   47.7680 C   0  0  0  0  0  0  0  0  0  0  0  0
  179.6870   22.7730   48.7110 C   0  0  0  0  0  0  0  0  0  0  0  0
  178.4970   22.0560   48.8730 C   0  0  0  0  0  0  0  0  0  0  0  0
  177.4630   22.4720   49.8440 C   0  0  0  0  0  0  0  0  0  0  0  0
  176.3390   23.0180   49.2360 O   0  0  0  0  0  0  0  0  0  0  0  0
  175.2970   23.4400   50.0210 C   0  0  0  0  0  0  0  0  0  0  0  0
  174.1930   23.9890   49.3680 C   0  0  0  0  0  0  0  0  0  0  0  0
  173.0970   24.4380   50.1080 C   0  0  0  0  0  0  0  0  0  0  0  0
  173.1070   24.3400   51.5010 C   0  0  0  0  0  0  0  0  0  0  0  0
  174.2100   23.7910   52.1500 C   0  0  0  0  0  0  0  0  0  0  0  0
  174.1530   23.7240   53.5160 O   0  0  0  0  0  0  0  0  0  0  0  0
  175.3060   23.3410   51.4090 C   0  0  0  0  0  0  0  0  0  0  0  0
  176.4840   22.7580   52.0510 C   0  0  0  0  0  0  0  0  0  0  0  0
  176.5650   22.6310   53.2710 O   0  0  0  0  0  0  0  0  0  0  0  0
  177.5940   22.3160   51.1750 C   0  0  0  0  0  0  0  0  0  0  0  0
  178.6950   21.7510   51.7920 O   0  0  0  0  0  0  0  0  0  0  0  0
  178.2760   20.9380   48.0530 C   0  0  0  0  0  0  0  0  0  0  0  0
  179.2230   20.5240   47.0980 C   0  0  0  0  0  0  0  0  0  0  0  0
  178.9340   19.3090   46.2510 C   0  0  0  0  0  0  0  0  0  0  0  0
  177.6370   18.8900   46.3190 F   0  0  0  0  0  0  0  0  0  0  0  0
  182.3739   20.5117   46.4851 H   0  0  0  0  0  0  0  0  0  0  0  0
  181.0867   20.0385   45.3250 H   0  0  0  0  0  0  0  0  0  0  0  0
  181.7225   21.7185   45.3250 H   0  0  0  0  0  0  0  0  0  0  0  0
  181.5706   22.9480   47.6605 H   0  0  0  0  0  0  0  0  0  0  0  0
  179.8760   23.6610   49.3320 H   0  0  0  0  0  0  0  0  0  0  0  0
  174.1858   24.0681   48.2709 H   0  0  0  0  0  0  0  0  0  0  0  0
  172.2255   24.8690   49.5934 H   0  0  0  0  0  0  0  0  0  0  0  0
  172.2451   24.6958   52.0846 H   0  0  0  0  0  0  0  0  0  0  0  0
  173.7830   22.9700   53.9320 H   0  0  0  0  0  0  0  0  0  0  0  0
  179.0890   22.1770   52.5280 H   0  0  0  0  0  0  0  0  0  0  0  0
  177.3391   20.3715   48.1597 H   0  0  0  0  0  0  0  0  0  0  0  0
  179.1661   19.5523   45.2037 H   0  0  0  0  0  0  0  0  0  0  0  0
  179.5576   18.4902   46.6392 H   0  0  0  0  0  0  0  0  0  0  0  0
  1  2  1  0
  2  3  2  0
  3  4  1  0
  4  5  2  0
  5  6  1  0
  6  7  1  0
  7  8  1  0
  8  9  2  0
  9 10  1  0
 10 11  2  0
 11 12  1  0
 12 13  1  0
 12 14  2  0
 14 15  1  0
 15 16  2  0
 15 17  1  0
 17 18  1  0
  5 19  1  0
 19 20  2  0
 20 21  1  0
 21 22  1  0
 20  2  1  0
 17  6  2  0
 14  8  1  0
  1 23  1  0
  1 24  1  0
  1 25  1  0
  3 26  1  0
  4 27  1  0
  9 28  1  0
 10 29  1  0
 11 30  1  0
 13 31  1  0
 18 32  1  0
 19 33  1  0
 21 34  1  0
 21 35  1  0
M  END
>  <meeko>  (6) 
{"is_sidechain": [false], "free_energy": -7.117, "intermolecular_energy": -8.212, "internal_energy": -0.382}

$$$$
cand_045_out
     RDKit          3D

 35 37  0  0  0  0  0  0  0  0999 V2000
  170.1110   25.1290   52.0150 C   0  0  0  0  0  0  0  0  0  0  0  0
  171.2960   24.5550   51.2880 C   0  0  0  0  0  0  0  0  0  0  0  0
  171.3670   24.6710   49.8930 C   0  0  0  0  0  0  0  0  0  0  0  0
  172.4530   24.1500   49.1830 C   0  0  0  0  0  0  0  0  0  0  0  0
  173.4920   23.4920   49.8480 C   0  0  0  0  0  0  0  0  0  0  0  0
  174.6640   22.9530   49.1250 C   0  0  0  0  0  0  0  0  0  0  0  0
  174.4380   21.6880   48.5950 O   0  0  0  0  0  0  0  0  0  0  0  0
  175.4410   21.0730   47.8930 C   0  0  0  0  0  0  0  0  0  0  0  0
  175.1720   19.8010   47.3860 C   0  0  0  0  0  0  0  0  0  0  0  0
  176.1510   19.1180   46.6610 C   0  0  0  0  0  0  0  0  0  0  0  0
  177.3980   19.7070   46.4420 C   0  0  0  0  0  0  0  0  0  0  0  0
  177.6630   20.9770   46.9480 C   0  0  0  0  0  0  0  0  0  0  0  0
  178.9040   21.4960   46.6970 O   0  0  0  0  0  0  0  0  0  0  0  0
  176.6830   21.6600   47.6740 C   0  0  0  0  0  0  0  0  0  0  0  0
  176.9210   22.9950   48.2220 C   0  0  0  0  0  0  0  0  0  0  0  0
  177.9900   23.5830   48.0670 O   0  0  0  0  0  0  0  0  0  0  0  0
  175.8180   23.6310   48.9800 C   0  0  0  0  0  0  0  0  0  0  0  0
  176.0480   24.9000   49.4800 O   0  0  0  0  0  0  0  0  0  0  0  0
  173.4260   23.3850   51.2460 C   0  0  0  0  0  0  0  0  0  0  0  0
  172.3410   23.9070   51.9770 C   0  0  0  0  0  0  0  0  0  0  0  0
  172.3210   23.7540   53.4770 C   0  0  0  0  0  0  0  0  0  0  0  0
  173.5610   23.7690   54.0460 F   0  0  0  0  0  0  0  0  0  0  0  0
  170.2733   25.0504   53.1001 H   0  0  0  0  0  0  0  0  0  0  0  0
  169.9881   26.1865   51.7383 H   0  0  0  0  0  0  0  0  0  0  0  0
  169.2050   24.5699   51.7383 H   0  0  0  0  0  0  0  0  0  0  0  0
  170.5570   25.1790   49.3492 H   0  0  0  0  0  0  0  0  0  0  0  0
  172.4903   24.2590   48.0891 H   0  0  0  0  0  0  0  0  0  0  0  0
  174.1896   19.3366   47.5572 H   0  0  0  0  0  0  0  0  0  0  0  0
  175.9395   18.1149   46.2620 H   0  0  0  0  0  0  0  0  0  0  0  0
  178.1692   19.1690   45.8711 H   0  0  0  0  0  0  0  0  0  0  0  0
  179.0610   22.4120   46.8130 H   0  0  0  0  0  0  0  0  0  0  0  0
  175.5100   25.6160   49.2050 H   0  0  0  0  0  0  0  0  0  0  0  0
  174.2421   22.8808   51.7843 H   0  0  0  0  0  0  0  0  0  0  0  0
  171.7334   24.5808   53.9027 H   0  0  0  0  0  0  0  0  0  0  0  0
  171.8793   22.7702   53.6941 H   0  0  0  0  0  0  0  0  0  0  0  0
  1  2  1  0
  2  3  2  0
  3  4  1  0
  4  5  2  0
  5  6  1  0
  6  7  1  0
  7  8  1  0
  8  9  2  0
  9 10  1  0
 10 11  2  0
 11 12  1  0
 12 13  1  0
 12 14  2  0
 14 15  1  0
 15 16  2  0
 15 17  1  0
 17 18  1  0
  5 19  1  0
 19 20  2  0
 20 21  1  0
 21 22  1  0
 20  2  1  0
 17  6  2  0
 14  8  1  0
  1 23  1  0
  1 24  1  0
  1 25  1  0
  3 26  1  0
  4 27  1  0
  9 28  1  0
 10 29  1  0
 11 30  1  0
 13 31  1  0
 18 32  1  0
 19 33  1  0
 21 34  1  0
 21 35  1  0
M  END
>  <meeko>  (7) 
{"is_sidechain": [false], "free_energy": -7.079, "intermolecular_energy": -8.134, "internal_energy": -0.415}

$$$$
cand_045_out
     RDKit          3D

 35 37  0  0  0  0  0  0  0  0999 V2000
  180.8210   19.3810   45.1580 C   0  0  0  0  0  0  0  0  0  0  0  0
  179.9290   20.0010   46.2000 C   0  0  0  0  0  0  0  0  0  0  0  0
  178.6050   19.5560   46.3200 C   0  0  0  0  0  0  0  0  0  0  0  0
  177.7470   20.1080   47.2760 C   0  0  0  0  0  0  0  0  0  0  0  0
  178.1870   21.1230   48.1310 C   0  0  0  0  0  0  0  0  0  0  0  0
  177.3070   21.7060   49.1670 C   0  0  0  0  0  0  0  0  0  0  0  0
  176.0500   22.0450   48.6800 O   0  0  0  0  0  0  0  0  0  0  0  0
  175.1310   22.5900   49.5380 C   0  0  0  0  0  0  0  0  0  0  0  0
  173.8850   22.9220   49.0040 C   0  0  0  0  0  0  0  0  0  0  0  0
  172.9020   23.4820   49.8230 C   0  0  0  0  0  0  0  0  0  0  0  0
  173.1650   23.7100   51.1760 C   0  0  0  0  0  0  0  0  0  0  0  0
  174.4100   23.3770   51.7060 C   0  0  0  0  0  0  0  0  0  0  0  0
  174.6010   23.6260   53.0370 O   0  0  0  0  0  0  0  0  0  0  0  0
  175.3920   22.8170   50.8850 C   0  0  0  0  0  0  0  0  0  0  0  0
  176.7120   22.4530   51.4020 C   0  0  0  0  0  0  0  0  0  0  0  0
  177.0170   22.6170   52.5820 O   0  0  0  0  0  0  0  0  0  0  0  0
  177.6840   21.8690   50.4480 C   0  0  0  0  0  0  0  0  0  0  0  0
  178.9220   21.5140   50.9520 O   0  0  0  0  0  0  0  0  0  0  0  0
  179.5160   21.5600   48.0160 C   0  0  0  0  0  0  0  0  0  0  0  0
  180.3940   21.0140   47.0620 C   0  0  0  0  0  0  0  0  0  0  0  0
  181.8090   21.5300   46.9800 C   0  0  0  0  0  0  0  0  0  0  0  0
  182.6930   20.8300   47.7490 F   0  0  0  0  0  0  0  0  0  0  0  0
  181.6278   18.8202   45.6526 H   0  0  0  0  0  0  0  0  0  0  0  0
  180.2309   18.6974   44.5300 H   0  0  0  0  0  0  0  0  0  0  0  0
  181.2561   20.1723   44.5300 H   0  0  0  0  0  0  0  0  0  0  0  0
  178.2364   18.7624   45.6534 H   0  0  0  0  0  0  0  0  0  0  0  0
  176.7137   19.7394   47.3564 H   0  0  0  0  0  0  0  0  0  0  0  0
  173.6773   22.7427   47.9388 H   0  0  0  0  0  0  0  0  0  0  0  0
  171.9199   23.7438   49.4024 H   0  0  0  0  0  0  0  0  0  0  0  0
  172.3912   24.1513   51.8214 H   0  0  0  0  0  0  0  0  0  0  0  0
  173.8870   23.9290   53.5640 H   0  0  0  0  0  0  0  0  0  0  0  0
  179.5460   22.1770   51.1730 H   0  0  0  0  0  0  0  0  0  0  0  0
  179.8804   22.3499   48.6893 H   0  0  0  0  0  0  0  0  0  0  0  0
  182.1393   21.4734   45.9323 H   0  0  0  0  0  0  0  0  0  0  0  0
  181.7978   22.5618   47.3610 H   0  0  0  0  0  0  0  0  0  0  0  0
  1  2  1  0
  2  3  2  0
  3  4  1  0
  4  5  2  0
  5  6  1  0
  6  7  1  0
  7  8  1  0
  8  9  2  0
  9 10  1  0
 10 11  2  0
 11 12  1  0
 12 13  1  0
 12 14  2  0
 14 15  1  0
 15 16  2  0
 15 17  1  0
 17 18  1  0
  5 19  1  0
 19 20  2  0
 20 21  1  0
 21 22  1  0
 20  2  1  0
 17  6  2  0
 14  8  1  0
  1 23  1  0
  1 24  1  0
  1 25  1  0
  3 26  1  0
  4 27  1  0
  9 28  1  0
 10 29  1  0
 11 30  1  0
 13 31  1  0
 18 32  1  0
 19 33  1  0
 21 34  1  0
 21 35  1  0
M  END
>  <meeko>  (8) 
{"is_sidechain": [false], "free_energy": -7.03, "intermolecular_energy": -8.364, "internal_energy": -0.128}

$$$$
cand_045_out
     RDKit          3D

 35 37  0  0  0  0  0  0  0  0999 V2000
  172.6070   25.0810   52.0700 C   0  0  0  0  0  0  0  0  0  0  0  0
  173.4990   24.2330   51.2050 C   0  0  0  0  0  0  0  0  0  0  0  0
  174.7080   23.7550   51.7290 C   0  0  0  0  0  0  0  0  0  0  0  0
  175.5640   22.9650   50.9550 C   0  0  0  0  0  0  0  0  0  0  0  0
  175.2370   22.6380   49.6360 C   0  0  0  0  0  0  0  0  0  0  0  0
  176.1110   21.7840   48.8040 C   0  0  0  0  0  0  0  0  0  0  0  0
  177.3950   22.2980   48.6650 O   0  0  0  0  0  0  0  0  0  0  0  0
  178.3130   21.6010   47.9230 C   0  0  0  0  0  0  0  0  0  0  0  0
  179.5870   22.1580   47.8040 C   0  0  0  0  0  0  0  0  0  0  0  0
  180.5690   21.5000   47.0620 C   0  0  0  0  0  0  0  0  0  0  0  0
  180.2780   20.2850   46.4380 C   0  0  0  0  0  0  0  0  0  0  0  0
  179.0060   19.7310   46.5590 C   0  0  0  0  0  0  0  0  0  0  0  0
  178.7890   18.5380   45.9240 O   0  0  0  0  0  0  0  0  0  0  0  0
  178.0230   20.3900   47.3020 C   0  0  0  0  0  0  0  0  0  0  0  0
  176.6760   19.8420   47.4550 C   0  0  0  0  0  0  0  0  0  0  0  0
  176.3440   18.7750   46.9420 O   0  0  0  0  0  0  0  0  0  0  0  0
  175.7060   20.6210   48.2600 C   0  0  0  0  0  0  0  0  0  0  0  0
  174.4400   20.0860   48.4100 O   0  0  0  0  0  0  0  0  0  0  0  0
  174.0200   23.1080   49.1160 C   0  0  0  0  0  0  0  0  0  0  0  0
  173.1460   23.9020   49.8810 C   0  0  0  0  0  0  0  0  0  0  0  0
  171.8570   24.3850   49.2650 C   0  0  0  0  0  0  0  0  0  0  0  0
  171.7840   24.1840   47.9180 F   0  0  0  0  0  0  0  0  0  0  0  0
  172.8218   24.8768   53.1293 H   0  0  0  0  0  0  0  0  0  0  0  0
  172.7923   26.1441   51.8566 H   0  0  0  0  0  0  0  0  0  0  0  0
  171.5546   24.8422   51.8566 H   0  0  0  0  0  0  0  0  0  0  0  0
  174.9873   24.0047   52.7632 H   0  0  0  0  0  0  0  0  0  0  0  0
  176.5052   22.5968   51.3892 H   0  0  0  0  0  0  0  0  0  0  0  0
  179.8171   23.1152   48.2948 H   0  0  0  0  0  0  0  0  0  0  0  0
  181.5733   21.9389   46.9686 H   0  0  0  0  0  0  0  0  0  0  0  0
  181.0516   19.7668   45.8523 H   0  0  0  0  0  0  0  0  0  0  0  0
  178.1870   18.4920   45.2080 H   0  0  0  0  0  0  0  0  0  0  0  0
  173.8600   20.4300   49.0610 H   0  0  0  0  0  0  0  0  0  0  0  0
  173.7429   22.8486   48.0836 H   0  0  0  0  0  0  0  0  0  0  0  0
  171.0224   23.8500   49.7417 H   0  0  0  0  0  0  0  0  0  0  0  0
  171.8086   25.4713   49.4310 H   0  0  0  0  0  0  0  0  0  0  0  0
  1  2  1  0
  2  3  2  0
  3  4  1  0
  4  5  2  0
  5  6  1  0
  6  7  1  0
  7  8  1  0
  8  9  2  0
  9 10  1  0
 10 11  2  0
 11 12  1  0
 12 13  1  0
 12 14  2  0
 14 15  1  0
 15 16  2  0
 15 17  1  0
 17 18  1  0
  5 19  1  0
 19 20  2  0
 20 21  1  0
 21 22  1  0
 20  2  1  0
 17  6  2  0
 14  8  1  0
  1 23  1  0
  1 24  1  0
  1 25  1  0
  3 26  1  0
  4 27  1  0
  9 28  1  0
 10 29  1  0
 11 30  1  0
 13 31  1  0
 18 32  1  0
 19 33  1  0
 21 34  1  0
 21 35  1  0
M  END
>  <meeko>  (9) 
{"is_sidechain": [false], "free_energy": -6.887, "intermolecular_energy": -8.112, "internal_energy": -0.212}

$$$$
