cand_046_out
     RDKit          3D

 39 41  0  0  0  0  0  0  0  0999 V2000
  178.9850   13.6790   45.0520 C   0  0  0  0  0  0  0  0  0  0  0  0
  180.2200   14.1790   44.9150 C   0  0  0  0  0  0  0  0  0  0  0  0
  180.4900   15.6010   44.6550 C   0  0  0  0  0  0  0  0  0  0  0  0
  179.8680   16.5720   45.4620 C   0  0  0  0  0  0  0  0  0  0  0  0
  180.1120   17.9420   45.2880 C   0  0  0  0  0  0  0  0  0  0  0  0
  179.4120   18.9280   46.1390 C   0  0  0  0  0  0  0  0  0  0  0  0
  178.0310   18.7720   46.1220 O   0  0  0  0  0  0  0  0  0  0  0  0
  177.2580   19.6210   46.8710 C   0  0  0  0  0  0  0  0  0  0  0  0
  175.8770   19.4370   46.8130 C   0  0  0  0  0  0  0  0  0  0  0  0
  175.0310   20.2670   47.5540 C   0  0  0  0  0  0  0  0  0  0  0  0
  175.5680   21.2780   48.3530 C   0  0  0  0  0  0  0  0  0  0  0  0
  176.9480   21.4590   48.4100 C   0  0  0  0  0  0  0  0  0  0  0  0
  177.4060   22.4690   49.2120 O   0  0  0  0  0  0  0  0  0  0  0  0
  177.7920   20.6290   47.6670 C   0  0  0  0  0  0  0  0  0  0  0  0
  179.2480   20.7850   47.6980 C   0  0  0  0  0  0  0  0  0  0  0  0
  179.7950   21.6480   48.3810 O   0  0  0  0  0  0  0  0  0  0  0  0
  180.0530   19.8590   46.8700 C   0  0  0  0  0  0  0  0  0  0  0  0
  181.4270   20.0060   46.9170 O   0  0  0  0  0  0  0  0  0  0  0  0
  180.9930   18.3370   44.2760 C   0  0  0  0  0  0  0  0  0  0  0  0
  181.6260   17.3850   43.4730 C   0  0  0  0  0  0  0  0  0  0  0  0
  181.3860   16.0120   43.6480 C   0  0  0  0  0  0  0  0  0  0  0  0
  182.1120   15.0380   42.7480 C   0  0  0  0  0  0  0  0  0  0  0  0
  181.3450   14.7690   41.4620 C   0  0  0  0  0  0  0  0  0  0  0  0
  178.8447   12.6053   45.2458 H   0  0  0  0  0  0  0  0  0  0  0  0
  178.1111   14.3420   44.9707 H   0  0  0  0  0  0  0  0  0  0  0  0
  181.0747   13.4919   45.0012 H   0  0  0  0  0  0  0  0  0  0  0  0
  179.1722   16.2478   46.2499 H   0  0  0  0  0  0  0  0  0  0  0  0
  175.4538   18.6394   46.1847 H   0  0  0  0  0  0  0  0  0  0  0  0
  173.9414   20.1235   47.5076 H   0  0  0  0  0  0  0  0  0  0  0  0
  174.9023   21.9308   48.9367 H   0  0  0  0  0  0  0  0  0  0  0  0
  178.2420   22.3930   49.6270 H   0  0  0  0  0  0  0  0  0  0  0  0
  181.9770   19.2480   46.9670 H   0  0  0  0  0  0  0  0  0  0  0  0
  181.1892   19.4067   44.1109 H   0  0  0  0  0  0  0  0  0  0  0  0
  182.3243   17.7162   42.6903 H   0  0  0  0  0  0  0  0  0  0  0  0
  183.0968   15.4565   42.4931 H   0  0  0  0  0  0  0  0  0  0  0  0
  182.2121   14.0856   43.2892 H   0  0  0  0  0  0  0  0  0  0  0  0
  180.3329   14.4140   41.7061 H   0  0  0  0  0  0  0  0  0  0  0  0
  181.2765   15.6968   40.8750 H   0  0  0  0  0  0  0  0  0  0  0  0
  181.8710   14.0017   40.8750 H   0  0  0  0  0  0  0  0  0  0  0  0
  1  2  2  0
  2  3  1  0
  3  4  2  0
  4  5  1  0
  5  6  1  0
  6  7  1  0
  7  8  1  0
  8  9  2  0
  9 10  1  0
 10 11  2  0
 11 12  1  0
 12 13  1  0
 12 14  2  0
 14 15  1  0
 15 16  2  0
 15 17  1  0
 17 18  1  0
  5 19  2  0
 19 20  1  0
 20 21  2  0
 21 22  1  0
 22 23  1  0
 21  3  1  0
 17  6  2  0
 14  8  1  0
  1 24  1  0
  1 25  1  0
  2 26  1  0
  4 27  1  0
  9 28  1  0
 10 29  1  0
 11 30  1  0
 13 31  1  0
 18 32  1  0
 19 33  1  0
 20 34  1  0
 22 35  1  0
 22 36  1  0
 23 37  1  0
 23 38  1  0
 23 39  1  0
M  END
>  <meeko>  (1) 
{"is_sidechain": [false], "free_energy": -8.19, "intermolecular_energy": -10.106, "internal_energy": -0.488}

$$$$
cand_046_out
     RDKit          3D

 39 41  0  0  0  0  0  0  0  0999 V2000
  179.0270   13.5760   45.2230 C   0  0  0  0  0  0  0  0  0  0  0  0
  180.2520   13.9920   44.8750 C   0  0  0  0  0  0  0  0  0  0  0  0
  180.5220   15.3240   44.3130 C   0  0  0  0  0  0  0  0  0  0  0  0
  180.3730   16.4550   45.1370 C   0  0  0  0  0  0  0  0  0  0  0  0
  180.6490   17.7490   44.6710 C   0  0  0  0  0  0  0  0  0  0  0  0
  180.4490   18.9100   45.5640 C   0  0  0  0  0  0  0  0  0  0  0  0
  181.5750   19.7200   45.6560 O   0  0  0  0  0  0  0  0  0  0  0  0
  181.5260   20.8360   46.4510 C   0  0  0  0  0  0  0  0  0  0  0  0
  182.6830   21.6120   46.5250 C   0  0  0  0  0  0  0  0  0  0  0  0
  182.7000   22.7640   47.3160 C   0  0  0  0  0  0  0  0  0  0  0  0
  181.5610   23.1390   48.0290 C   0  0  0  0  0  0  0  0  0  0  0  0
  180.4070   22.3630   47.9540 C   0  0  0  0  0  0  0  0  0  0  0  0
  179.3270   22.7880   48.6790 O   0  0  0  0  0  0  0  0  0  0  0  0
  180.3910   21.2110   47.1640 C   0  0  0  0  0  0  0  0  0  0  0  0
  179.2000   20.3670   47.0560 C   0  0  0  0  0  0  0  0  0  0  0  0
  178.1570   20.6340   47.6490 O   0  0  0  0  0  0  0  0  0  0  0  0
  179.2880   19.1640   46.1970 C   0  0  0  0  0  0  0  0  0  0  0  0
  178.1530   18.3810   46.0910 O   0  0  0  0  0  0  0  0  0  0  0  0
  181.0750   17.9010   43.3480 C   0  0  0  0  0  0  0  0  0  0  0  0
  181.2370   16.7890   42.5200 C   0  0  0  0  0  0  0  0  0  0  0  0
  180.9640   15.4910   42.9860 C   0  0  0  0  0  0  0  0  0  0  0  0
  181.1700   14.3320   42.0370 C   0  0  0  0  0  0  0  0  0  0  0  0
  181.0970   14.7670   40.5810 C   0  0  0  0  0  0  0  0  0  0  0  0
  178.8861   12.5674   45.6389 H   0  0  0  0  0  0  0  0  0  0  0  0
  178.1620   14.2430   45.0928 H   0  0  0  0  0  0  0  0  0  0  0  0
  181.0978   13.3031   45.0166 H   0  0  0  0  0  0  0  0  0  0  0  0
  180.0311   16.3208   46.1739 H   0  0  0  0  0  0  0  0  0  0  0  0
  183.5806   21.3175   45.9615 H   0  0  0  0  0  0  0  0  0  0  0  0
  183.6123   23.3756   47.3765 H   0  0  0  0  0  0  0  0  0  0  0  0
  181.5744   24.0469   48.6499 H   0  0  0  0  0  0  0  0  0  0  0  0
  178.9200   22.2110   49.2930 H   0  0  0  0  0  0  0  0  0  0  0  0
  177.8850   17.8460   46.8120 H   0  0  0  0  0  0  0  0  0  0  0  0
  181.2846   18.9071   42.9557 H   0  0  0  0  0  0  0  0  0  0  0  0
  181.5840   16.9306   41.4858 H   0  0  0  0  0  0  0  0  0  0  0  0
  182.1592   13.8897   42.2262 H   0  0  0  0  0  0  0  0  0  0  0  0
  180.3668   13.6015   42.2138 H   0  0  0  0  0  0  0  0  0  0  0  0
  180.9151   15.8507   40.5308 H   0  0  0  0  0  0  0  0  0  0  0  0
  182.0473   14.5311   40.0797 H   0  0  0  0  0  0  0  0  0  0  0  0
  180.2758   14.2338   40.0797 H   0  0  0  0  0  0  0  0  0  0  0  0
  1  2  2  0
  2  3  1  0
  3  4  2  0
  4  5  1  0
  5  6  1  0
  6  7  1  0
  7  8  1  0
  8  9  2  0
  9 10  1  0
 10 11  2  0
 11 12  1  0
 12 13  1  0
 12 14  2  0
 14 15  1  0
 15 16  2  0
 15 17  1  0
 17 18  1  0
  5 19  2  0
 19 20  1  0
 20 21  2  0
 21 22  1  0
 22 23  1  0
 21  3  1  0
 17  6  2  0
 14  8  1  0
  1 24  1  0
  1 25  1  0
  2 26  1  0
  4 27  1  0
  9 28  1  0
 10 29  1  0
 11 30  1  0
 13 31  1  0
 18 32  1  0
 19 33  1  0
 20 34  1  0
 22 35  1  0
 22 36  1  0
 23 37  1  0
 23 38  1  0
 23 39  1  0
M  END
>  <meeko>  (2) 
{"is_sidechain": [false], "free_energy": -7.581, "intermolecular_energy": -9.448, "internal_energy": -0.393}

$$$$
cand_046_out
     RDKit          3D

 39 41  0  0  0  0  0  0  0  0999 V2000
  175.5690   18.2100   46.8090 C   0  0  0  0  0  0  0  0  0  0  0  0
  176.6490   18.8430   46.3340 C   0  0  0  0  0  0  0  0  0  0  0  0
  177.4320   19.8040   47.1250 C   0  0  0  0  0  0  0  0  0  0  0  0
  176.7840   20.5520   48.1260 C   0  0  0  0  0  0  0  0  0  0  0  0
  177.4820   21.4580   48.9390 C   0  0  0  0  0  0  0  0  0  0  0  0
  176.7540   22.2440   49.9580 C   0  0  0  0  0  0  0  0  0  0  0  0
  175.7560   23.0430   49.4110 O   0  0  0  0  0  0  0  0  0  0  0  0
  175.0000   23.8240   50.2470 C   0  0  0  0  0  0  0  0  0  0  0  0
  174.0180   24.6190   49.6540 C   0  0  0  0  0  0  0  0  0  0  0  0
  173.2110   25.4380   50.4480 C   0  0  0  0  0  0  0  0  0  0  0  0
  173.3860   25.4590   51.8330 C   0  0  0  0  0  0  0  0  0  0  0  0
  174.3650   24.6640   52.4220 C   0  0  0  0  0  0  0  0  0  0  0  0
  174.4830   24.7350   53.7840 O   0  0  0  0  0  0  0  0  0  0  0  0
  175.1730   23.8470   51.6270 C   0  0  0  0  0  0  0  0  0  0  0  0
  176.2150   22.9960   52.2050 C   0  0  0  0  0  0  0  0  0  0  0  0
  176.4240   22.9560   53.4160 O   0  0  0  0  0  0  0  0  0  0  0  0
  177.0200   22.1720   51.2750 C   0  0  0  0  0  0  0  0  0  0  0  0
  177.9910   21.3610   51.8330 O   0  0  0  0  0  0  0  0  0  0  0  0
  178.8550   21.6170   48.7290 C   0  0  0  0  0  0  0  0  0  0  0  0
  179.5160   20.8760   47.7460 C   0  0  0  0  0  0  0  0  0  0  0  0
  178.8190   19.9640   46.9340 C   0  0  0  0  0  0  0  0  0  0  0  0
  179.5990   19.1900   45.8960 C   0  0  0  0  0  0  0  0  0  0  0  0
  180.5790   20.0760   45.1400 C   0  0  0  0  0  0  0  0  0  0  0  0
  175.0220   17.5007   46.1705 H   0  0  0  0  0  0  0  0  0  0  0  0
  175.2287   18.3993   47.8378 H   0  0  0  0  0  0  0  0  0  0  0  0
  176.9660   18.6340   45.3016 H   0  0  0  0  0  0  0  0  0  0  0  0
  175.7018   20.4229   48.2749 H   0  0  0  0  0  0  0  0  0  0  0  0
  173.8795   24.6008   48.5629 H   0  0  0  0  0  0  0  0  0  0  0  0
  172.4377   26.0663   49.9818 H   0  0  0  0  0  0  0  0  0  0  0  0
  172.7506   26.1034   52.4583 H   0  0  0  0  0  0  0  0  0  0  0  0
  175.3090   24.9420   54.1720 H   0  0  0  0  0  0  0  0  0  0  0  0
  177.9100   20.4280   51.7780 H   0  0  0  0  0  0  0  0  0  0  0  0
  179.4206   22.3326   49.3438 H   0  0  0  0  0  0  0  0  0  0  0  0
  180.5989   21.0082   47.6051 H   0  0  0  0  0  0  0  0  0  0  0  0
  180.1601   18.3883   46.3985 H   0  0  0  0  0  0  0  0  0  0  0  0
  178.8824   18.7796   45.1693 H   0  0  0  0  0  0  0  0  0  0  0  0
  181.1971   20.6349   45.8580 H   0  0  0  0  0  0  0  0  0  0  0  0
  181.2264   19.4505   44.5078 H   0  0  0  0  0  0  0  0  0  0  0  0
  180.0217   20.7829   44.5078 H   0  0  0  0  0  0  0  0  0  0  0  0
  1  2  2  0
  2  3  1  0
  3  4  2  0
  4  5  1  0
  5  6  1  0
  6  7  1  0
  7  8  1  0
  8  9  2  0
  9 10  1  0
 10 11  2  0
 11 12  1  0
 12 13  1  0
 12 14  2  0
 14 15  1  0
 15 16  2  0
 15 17  1  0
 17 18  1  0
  5 19  2  0
 19 20  1  0
 20 21  2  0
 21 22  1  0
 22 23  1  0
 21  3  1  0
 17  6  2  0
 14  8  1  0
  1 24  1  0
  1 25  1  0
  2 26  1  0
  4 27  1  0
  9 28  1  0
 10 29  1  0
 11 30  1  0
 13 31  1  0
 18 32  1  0
 19 33  1  0
 20 34  1  0
 22 35  1  0
 22 36  1  0
 23 37  1  0
 23 38  1  0
 23 39  1  0
M  END
>  <meeko>  (3) 
{"is_sidechain": [false], "free_energy": -7.416, "intermolecular_energy": -9.126, "internal_energy": -0.511}

$$$$
cand_046_out
     RDKit          3D

 39 41  0  0  0  0  0  0  0  0999 V2000
  175.1820   18.5450   46.8730 C   0  0  0  0  0  0  0  0  0  0  0  0
  175.9220   19.0340   47.8760 C   0  0  0  0  0  0  0  0  0  0  0  0
  176.0250   20.4700   48.1750 C   0  0  0  0  0  0  0  0  0  0  0  0
  175.2570   21.0050   49.2260 C   0  0  0  0  0  0  0  0  0  0  0  0
  175.3380   22.3590   49.5840 C   0  0  0  0  0  0  0  0  0  0  0  0
  174.4890   22.8830   50.6760 C   0  0  0  0  0  0  0  0  0  0  0  0
  175.2200   23.2400   51.8030 O   0  0  0  0  0  0  0  0  0  0  0  0
  174.5560   23.7450   52.8910 C   0  0  0  0  0  0  0  0  0  0  0  0
  175.3270   24.0770   54.0060 C   0  0  0  0  0  0  0  0  0  0  0  0
  174.7130   24.5980   55.1480 C   0  0  0  0  0  0  0  0  0  0  0  0
  173.3300   24.7860   55.1740 C   0  0  0  0  0  0  0  0  0  0  0  0
  172.5630   24.4540   54.0610 C   0  0  0  0  0  0  0  0  0  0  0  0
  171.2140   24.6640   54.1550 O   0  0  0  0  0  0  0  0  0  0  0  0
  173.1780   23.9320   52.9190 C   0  0  0  0  0  0  0  0  0  0  0  0
  172.4080   23.5700   51.7270 C   0  0  0  0  0  0  0  0  0  0  0  0
  171.1880   23.7120   51.6720 O   0  0  0  0  0  0  0  0  0  0  0  0
  173.1540   23.0190   50.5730 C   0  0  0  0  0  0  0  0  0  0  0  0
  172.4200   22.6940   49.4470 O   0  0  0  0  0  0  0  0  0  0  0  0
  176.2020   23.1870   48.8620 C   0  0  0  0  0  0  0  0  0  0  0  0
  176.9780   22.6700   47.8220 C   0  0  0  0  0  0  0  0  0  0  0  0
  176.9020   21.3130   47.4640 C   0  0  0  0  0  0  0  0  0  0  0  0
  177.7780   20.8210   46.3330 C   0  0  0  0  0  0  0  0  0  0  0  0
  179.1800   20.4690   46.8090 C   0  0  0  0  0  0  0  0  0  0  0  0
  175.1429   17.4599   46.6966 H   0  0  0  0  0  0  0  0  0  0  0  0
  174.6131   19.2283   46.2254 H   0  0  0  0  0  0  0  0  0  0  0  0
  176.4802   18.3269   48.5072 H   0  0  0  0  0  0  0  0  0  0  0  0
  174.5753   20.3441   49.7814 H   0  0  0  0  0  0  0  0  0  0  0  0
  176.4168   23.9287   53.9858 H   0  0  0  0  0  0  0  0  0  0  0  0
  175.3199   24.8602   56.0272 H   0  0  0  0  0  0  0  0  0  0  0  0
  172.8469   25.1961   56.0731 H   0  0  0  0  0  0  0  0  0  0  0  0
  170.8060   25.3260   53.6330 H   0  0  0  0  0  0  0  0  0  0  0  0
  172.2100   23.3560   48.8180 H   0  0  0  0  0  0  0  0  0  0  0  0
  176.2715   24.2553   49.1150 H   0  0  0  0  0  0  0  0  0  0  0  0
  177.6603   23.3363   47.2738 H   0  0  0  0  0  0  0  0  0  0  0  0
  177.3176   19.9250   45.8912 H   0  0  0  0  0  0  0  0  0  0  0  0
  177.8638   21.6304   45.5931 H   0  0  0  0  0  0  0  0  0  0  0  0
  179.2032   20.4632   47.9087 H   0  0  0  0  0  0  0  0  0  0  0  0
  179.4564   19.4736   46.4312 H   0  0  0  0  0  0  0  0  0  0  0  0
  179.8938   21.2158   46.4312 H   0  0  0  0  0  0  0  0  0  0  0  0
  1  2  2  0
  2  3  1  0
  3  4  2  0
  4  5  1  0
  5  6  1  0
  6  7  1  0
  7  8  1  0
  8  9  2  0
  9 10  1  0
 10 11  2  0
 11 12  1  0
 12 13  1  0
 12 14  2  0
 14 15  1  0
 15 16  2  0
 15 17  1  0
 17 18  1  0
  5 19  2  0
 19 20  1  0
 20 21  2  0
 21 22  1  0
 22 23  1  0
 21  3  1  0
 17  6  2  0
 14  8  1  0
  1 24  1  0
  1 25  1  0
  2 26  1  0
  4 27  1  0
  9 28  1  0
 10 29  1  0
 11 30  1  0
 13 31  1  0
 18 32  1  0
 19 33  1  0
 20 34  1  0
 22 35  1  0
 22 36  1  0
 23 37  1  0
 23 38  1  0
 23 39  1  0
M  END
>  <meeko>  (4) 
{"is_sidechain": [false], "free_energy": -7.383, "intermolecular_energy": -9.097, "internal_energy": -0.5}

$$$$
cand_046_out
     RDKit          3D

 39 41  0  0  0  0  0  0  0  0999 V2000
  179.2060   24.0210   47.8700 C   0  0  0  0  0  0  0  0  0  0  0  0
  177.9960   23.7530   47.3610 C   0  0  0  0  0  0  0  0  0  0  0  0
  177.0560   22.8040   47.9760 C   0  0  0  0  0  0  0  0  0  0  0  0
  176.2090   23.2540   49.0060 C   0  0  0  0  0  0  0  0  0  0  0  0
  175.2650   22.4090   49.6080 C   0  0  0  0  0  0  0  0  0  0  0  0
  174.4170   22.9170   50.7070 C   0  0  0  0  0  0  0  0  0  0  0  0
  175.1530   23.2990   51.8240 O   0  0  0  0  0  0  0  0  0  0  0  0
  174.4890   23.7920   52.9180 C   0  0  0  0  0  0  0  0  0  0  0  0
  175.2660   24.1500   54.0210 C   0  0  0  0  0  0  0  0  0  0  0  0
  174.6530   24.6610   55.1680 C   0  0  0  0  0  0  0  0  0  0  0  0
  173.2660   24.8150   55.2100 C   0  0  0  0  0  0  0  0  0  0  0  0
  172.4940   24.4580   54.1080 C   0  0  0  0  0  0  0  0  0  0  0  0
  171.1410   24.6340   54.2170 O   0  0  0  0  0  0  0  0  0  0  0  0
  173.1070   23.9450   52.9610 C   0  0  0  0  0  0  0  0  0  0  0  0
  172.3330   23.5580   51.7810 C   0  0  0  0  0  0  0  0  0  0  0  0
  171.1090   23.6690   51.7400 O   0  0  0  0  0  0  0  0  0  0  0  0
  173.0780   23.0200   50.6200 C   0  0  0  0  0  0  0  0  0  0  0  0
  172.3390   22.6700   49.5050 O   0  0  0  0  0  0  0  0  0  0  0  0
  175.1840   21.0850   49.1670 C   0  0  0  0  0  0  0  0  0  0  0  0
  176.0100   20.6240   48.1400 C   0  0  0  0  0  0  0  0  0  0  0  0
  176.9530   21.4710   47.5320 C   0  0  0  0  0  0  0  0  0  0  0  0
  177.8100   20.9070   46.4210 C   0  0  0  0  0  0  0  0  0  0  0  0
  179.0030   20.1310   46.9570 C   0  0  0  0  0  0  0  0  0  0  0  0
  179.8675   24.7410   47.3660 H   0  0  0  0  0  0  0  0  0  0  0  0
  179.5379   23.5210   48.7919 H   0  0  0  0  0  0  0  0  0  0  0  0
  177.6908   24.2679   46.4381 H   0  0  0  0  0  0  0  0  0  0  0  0
  176.2895   24.2963   49.3481 H   0  0  0  0  0  0  0  0  0  0  0  0
  176.3589   24.0301   53.9873 H   0  0  0  0  0  0  0  0  0  0  0  0
  175.2637   24.9422   56.0386 H   0  0  0  0  0  0  0  0  0  0  0  0
  172.7838   25.2180   56.1128 H   0  0  0  0  0  0  0  0  0  0  0  0
  170.5740   23.8900   54.2620 H   0  0  0  0  0  0  0  0  0  0  0  0
  172.5870   22.9900   48.6600 H   0  0  0  0  0  0  0  0  0  0  0  0
  174.4619   20.3991   49.6340 H   0  0  0  0  0  0  0  0  0  0  0  0
  175.9214   19.5812   47.8012 H   0  0  0  0  0  0  0  0  0  0  0  0
  177.1954   20.2329   45.8063 H   0  0  0  0  0  0  0  0  0  0  0  0
  178.1931   21.7500   45.8273 H   0  0  0  0  0  0  0  0  0  0  0  0
  178.9842   20.1432   48.0568 H   0  0  0  0  0  0  0  0  0  0  0  0
  178.9541   19.0914   46.6010 H   0  0  0  0  0  0  0  0  0  0  0  0
  179.9336   20.5971   46.6010 H   0  0  0  0  0  0  0  0  0  0  0  0
  1  2  2  0
  2  3  1  0
  3  4  2  0
  4  5  1  0
  5  6  1  0
  6  7  1  0
  7  8  1  0
  8  9  2  0
  9 10  1  0
 10 11  2  0
 11 12  1  0
 12 13  1  0
 12 14  2  0
 14 15  1  0
 15 16  2  0
 15 17  1  0
 17 18  1  0
  5 19  2  0
 19 20  1  0
 20 21  2  0
 21 22  1  0
 22 23  1  0
 21  3  1  0
 17  6  2  0
 14  8  1  0
  1 24  1  0
  1 25  1  0
  2 26  1  0
  4 27  1  0
  9 28  1  0
 10 29  1  0
 11 30  1  0
 13 31  1  0
 18 32  1  0
 19 33  1  0
 20 34  1  0
 22 35  1  0
 22 36  1  0
 23 37  1  0
 23 38  1  0
 23 39  1  0
M  END
>  <meeko>  (5) 
{"is_sidechain": [false], "free_energy": -7.313, "intermolecular_energy": -8.903, "internal_energy": -0.608}

$$$$
cand_046_out
     RDKit          3D

 39 41  0  0  0  0  0  0  0  0999 V2000
  176.9760   23.7420   48.4340 C   0  0  0  0  0  0  0  0  0  0  0  0
  176.9550   22.6940   47.6000 C   0  0  0  0  0  0  0  0  0  0  0  0
  178.1180   21.8250   47.3690 C   0  0  0  0  0  0  0  0  0  0  0  0
  179.3740   22.2200   47.8650 C   0  0  0  0  0  0  0  0  0  0  0  0
  180.5140   21.4180   47.7090 C   0  0  0  0  0  0  0  0  0  0  0  0
  181.8200   21.8870   48.2200 C   0  0  0  0  0  0  0  0  0  0  0  0
  182.6100   22.4660   47.2330 O   0  0  0  0  0  0  0  0  0  0  0  0
  183.8480   22.9470   47.5720 C   0  0  0  0  0  0  0  0  0  0  0  0
  184.6110   23.5070   46.5470 C   0  0  0  0  0  0  0  0  0  0  0  0
  185.8820   24.0180   46.8250 C   0  0  0  0  0  0  0  0  0  0  0  0
  186.3860   23.9700   48.1250 C   0  0  0  0  0  0  0  0  0  0  0  0
  185.6220   23.4110   49.1460 C   0  0  0  0  0  0  0  0  0  0  0  0
  186.1780   23.3960   50.3970 O   0  0  0  0  0  0  0  0  0  0  0  0
  184.3520   22.8990   48.8680 C   0  0  0  0  0  0  0  0  0  0  0  0
  183.5150   22.3030   49.9110 C   0  0  0  0  0  0  0  0  0  0  0  0
  183.8880   22.2300   51.0810 O   0  0  0  0  0  0  0  0  0  0  0  0
  182.1880   21.7840   49.5110 C   0  0  0  0  0  0  0  0  0  0  0  0
  181.4000   21.2360   50.5070 O   0  0  0  0  0  0  0  0  0  0  0  0
  180.3830   20.2010   47.0330 C   0  0  0  0  0  0  0  0  0  0  0  0
  179.1420   19.7900   46.5420 C   0  0  0  0  0  0  0  0  0  0  0  0
  177.9970   20.5900   46.7010 C   0  0  0  0  0  0  0  0  0  0  0  0
  176.6840   20.0780   46.1520 C   0  0  0  0  0  0  0  0  0  0  0  0
  175.9870   19.1380   47.1240 C   0  0  0  0  0  0  0  0  0  0  0  0
  176.0739   24.3573   48.5669 H   0  0  0  0  0  0  0  0  0  0  0  0
  177.8953   23.9873   48.9860 H   0  0  0  0  0  0  0  0  0  0  0  0
  176.0217   22.4728   47.0615 H   0  0  0  0  0  0  0  0  0  0  0  0
  179.4642   23.1830   48.3889 H   0  0  0  0  0  0  0  0  0  0  0  0
  184.2132   23.5463   45.5222 H   0  0  0  0  0  0  0  0  0  0  0  0
  186.4856   24.4585   46.0178 H   0  0  0  0  0  0  0  0  0  0  0  0
  187.3859   24.3733   48.3431 H   0  0  0  0  0  0  0  0  0  0  0  0
  185.9320   22.7320   51.0100 H   0  0  0  0  0  0  0  0  0  0  0  0
  181.4520   21.5700   51.3810 H   0  0  0  0  0  0  0  0  0  0  0  0
  181.2658   19.5613   46.8866 H   0  0  0  0  0  0  0  0  0  0  0  0
  179.0590   18.8242   46.0221 H   0  0  0  0  0  0  0  0  0  0  0  0
  176.0243   20.9352   45.9523 H   0  0  0  0  0  0  0  0  0  0  0  0
  176.8972   19.5164   45.2305 H   0  0  0  0  0  0  0  0  0  0  0  0
  176.2137   19.4437   48.1561 H   0  0  0  0  0  0  0  0  0  0  0  0
  174.9002   19.1802   46.9594 H   0  0  0  0  0  0  0  0  0  0  0  0
  176.3431   18.1103   46.9594 H   0  0  0  0  0  0  0  0  0  0  0  0
  1  2  2  0
  2  3  1  0
  3  4  2  0
  4  5  1  0
  5  6  1  0
  6  7  1  0
  7  8  1  0
  8  9  2  0
  9 10  1  0
 10 11  2  0
 11 12  1  0
 12 13  1  0
 12 14  2  0
 14 15  1  0
 15 16  2  0
 15 17  1  0
 17 18  1  0
  5 19  2  0
 19 20  1  0
 20 21  2  0
 21 22  1  0
 22 23  1  0
 21  3  1  0
 17  6  2  0
 14  8  1  0
  1 24  1  0
  1 25  1  0
  2 26  1  0
  4 27  1  0
  9 28  1  0
 10 29  1  0
 11 30  1  0
 13 31  1  0
 18 32  1  0
 19 33  1  0
 20 34  1  0
 22 35  1  0
 22 36  1  0
 23 37  1  0
 23 38  1  0
 23 39  1  0
M  END
>  <meeko>  (6) 
{"is_sidechain": [false], "free_energy": -7.17, "intermolecular_energy": -8.697, "internal_energy": -0.637}

$$$$
cand_046_out
     RDKit          3D

 39 41  0  0  0  0  0  0  0  0999 V2000
  175.3510   26.1980   51.2390 C   0  0  0  0  0  0  0  0  0  0  0  0
  174.8750   25.7140   50.0850 C   0  0  0  0  0  0  0  0  0  0  0  0
  175.0150   24.3070   49.6820 C   0  0  0  0  0  0  0  0  0  0  0  0
  176.2990   23.8010   49.4050 C   0  0  0  0  0  0  0  0  0  0  0  0
  176.5030   22.4590   49.0510 C   0  0  0  0  0  0  0  0  0  0  0  0
  177.8670   21.9800   48.7400 C   0  0  0  0  0  0  0  0  0  0  0  0
  177.9810   21.4800   47.4470 O   0  0  0  0  0  0  0  0  0  0  0  0
  179.1950   21.0030   47.0260 C   0  0  0  0  0  0  0  0  0  0  0  0
  179.2610   20.4990   45.7270 C   0  0  0  0  0  0  0  0  0  0  0  0
  180.4690   19.9980   45.2340 C   0  0  0  0  0  0  0  0  0  0  0  0
  181.6090   20.0050   46.0390 C   0  0  0  0  0  0  0  0  0  0  0  0
  181.5410   20.5090   47.3350 C   0  0  0  0  0  0  0  0  0  0  0  0
  182.6950   20.4840   48.0700 O   0  0  0  0  0  0  0  0  0  0  0  0
  180.3320   21.0080   47.8280 C   0  0  0  0  0  0  0  0  0  0  0  0
  180.2160   21.5470   49.1840 C   0  0  0  0  0  0  0  0  0  0  0  0
  181.1770   21.5910   49.9510 O   0  0  0  0  0  0  0  0  0  0  0  0
  178.8900   22.0450   49.6120 C   0  0  0  0  0  0  0  0  0  0  0  0
  178.7950   22.5650   50.8900 O   0  0  0  0  0  0  0  0  0  0  0  0
  175.3890   21.6180   48.9670 C   0  0  0  0  0  0  0  0  0  0  0  0
  174.1090   22.1020   49.2470 C   0  0  0  0  0  0  0  0  0  0  0  0
  173.9030   23.4450   49.6060 C   0  0  0  0  0  0  0  0  0  0  0  0
  172.4920   23.8980   49.9040 C   0  0  0  0  0  0  0  0  0  0  0  0
  171.7530   24.3270   48.6450 C   0  0  0  0  0  0  0  0  0  0  0  0
  175.2160   27.2612   51.4869 H   0  0  0  0  0  0  0  0  0  0  0  0
  175.8771   25.5325   51.9392 H   0  0  0  0  0  0  0  0  0  0  0  0
  174.3533   26.4032   49.4047 H   0  0  0  0  0  0  0  0  0  0  0  0
  177.1654   24.4758   49.4678 H   0  0  0  0  0  0  0  0  0  0  0  0
  178.3633   20.4959   45.0913 H   0  0  0  0  0  0  0  0  0  0  0  0
  180.5213   19.5979   44.2107 H   0  0  0  0  0  0  0  0  0  0  0  0
  182.5602   19.6127   45.6500 H   0  0  0  0  0  0  0  0  0  0  0  0
  182.6540   20.4190   49.0030 H   0  0  0  0  0  0  0  0  0  0  0  0
  178.1220   23.1860   51.0940 H   0  0  0  0  0  0  0  0  0  0  0  0
  175.5220   20.5651   48.6776 H   0  0  0  0  0  0  0  0  0  0  0  0
  173.2477   21.4205   49.1855 H   0  0  0  0  0  0  0  0  0  0  0  0
  171.9437   23.0671   50.3719 H   0  0  0  0  0  0  0  0  0  0  0  0
  172.5490   24.7663   50.5770 H   0  0  0  0  0  0  0  0  0  0  0  0
  170.8328   24.8612   48.9240 H   0  0  0  0  0  0  0  0  0  0  0  0
  172.3969   24.9917   48.0504 H   0  0  0  0  0  0  0  0  0  0  0  0
  171.4951   23.4382   48.0504 H   0  0  0  0  0  0  0  0  0  0  0  0
  1  2  2  0
  2  3  1  0
  3  4  2  0
  4  5  1  0
  5  6  1  0
  6  7  1  0
  7  8  1  0
  8  9  2  0
  9 10  1  0
 10 11  2  0
 11 12  1  0
 12 13  1  0
 12 14  2  0
 14 15  1  0
 15 16  2  0
 15 17  1  0
 17 18  1  0
  5 19  2  0
 19 20  1  0
 20 21  2  0
 21 22  1  0
 22 23  1  0
 21  3  1  0
 17  6  2  0
 14  8  1  0
  1 24  1  0
  1 25  1  0
  2 26  1  0
  4 27  1  0
  9 28  1  0
 10 29  1  0
 11 30  1  0
 13 31  1  0
 18 32  1  0
 19 33  1  0
 20 34  1  0
 22 35  1  0
 22 36  1  0
 23 37  1  0
 23 38  1  0
 23 39  1  0
M  END
>  <meeko>  (7) 
{"is_sidechain": [false], "free_energy": -7.136, "intermolecular_energy": -8.82, "internal_energy": -0.472}

$$$$
cand_046_out
     RDKit          3D

 39 41  0  0  0  0  0  0  0  0999 V2000
  182.3280   21.2540   47.8970 C   0  0  0  0  0  0  0  0  0  0  0  0
  181.3500   21.8600   47.2120 C   0  0  0  0  0  0  0  0  0  0  0  0
  179.9360   21.4660   47.3060 C   0  0  0  0  0  0  0  0  0  0  0  0
  179.1470   21.9990   48.3430 C   0  0  0  0  0  0  0  0  0  0  0  0
  177.7840   21.6900   48.4650 C   0  0  0  0  0  0  0  0  0  0  0  0
  177.0010   22.2490   49.5890 C   0  0  0  0  0  0  0  0  0  0  0  0
  175.8790   22.9530   49.1670 O   0  0  0  0  0  0  0  0  0  0  0  0
  175.0610   23.5230   50.1080 C   0  0  0  0  0  0  0  0  0  0  0  0
  173.9540   24.2310   49.6390 C   0  0  0  0  0  0  0  0  0  0  0  0
  173.0790   24.8350   50.5460 C   0  0  0  0  0  0  0  0  0  0  0  0
  173.3110   24.7290   51.9180 C   0  0  0  0  0  0  0  0  0  0  0  0
  174.4160   24.0220   52.3830 C   0  0  0  0  0  0  0  0  0  0  0  0
  174.5840   23.9590   53.7400 O   0  0  0  0  0  0  0  0  0  0  0  0
  175.2920   23.4190   51.4760 C   0  0  0  0  0  0  0  0  0  0  0  0
  176.4660   22.6660   51.9220 C   0  0  0  0  0  0  0  0  0  0  0  0
  176.7330   22.5240   53.1140 O   0  0  0  0  0  0  0  0  0  0  0  0
  177.3340   22.0710   50.8810 C   0  0  0  0  0  0  0  0  0  0  0  0
  178.4310   21.3500   51.3130 O   0  0  0  0  0  0  0  0  0  0  0  0
  177.2130   20.8230   47.5300 C   0  0  0  0  0  0  0  0  0  0  0  0
  177.9790   20.2930   46.4890 C   0  0  0  0  0  0  0  0  0  0  0  0
  179.3440   20.6040   46.3620 C   0  0  0  0  0  0  0  0  0  0  0  0
  180.1110   20.0010   45.2070 C   0  0  0  0  0  0  0  0  0  0  0  0
  180.4320   18.5320   45.4400 C   0  0  0  0  0  0  0  0  0  0  0  0
  183.3686   21.5928   47.7861 H   0  0  0  0  0  0  0  0  0  0  0  0
  182.0908   20.4174   48.5706 H   0  0  0  0  0  0  0  0  0  0  0  0
  181.6173   22.6937   46.5460 H   0  0  0  0  0  0  0  0  0  0  0  0
  179.6111   22.6750   49.0763 H   0  0  0  0  0  0  0  0  0  0  0  0
  173.7703   24.3136   48.5576 H   0  0  0  0  0  0  0  0  0  0  0  0
  172.2064   25.3946   50.1780 H   0  0  0  0  0  0  0  0  0  0  0  0
  172.6212   25.2038   52.6313 H   0  0  0  0  0  0  0  0  0  0  0  0
  174.2770   24.6580   54.2820 H   0  0  0  0  0  0  0  0  0  0  0  0
  178.5170   20.4460   51.0820 H   0  0  0  0  0  0  0  0  0  0  0  0
  176.1495   20.5550   47.6144 H   0  0  0  0  0  0  0  0  0  0  0  0
  177.5065   19.6216   45.7569 H   0  0  0  0  0  0  0  0  0  0  0  0
  179.5056   20.0915   44.2930 H   0  0  0  0  0  0  0  0  0  0  0  0
  181.0621   20.5451   45.1102 H   0  0  0  0  0  0  0  0  0  0  0  0
  180.4755   18.3332   46.5210 H   0  0  0  0  0  0  0  0  0  0  0  0
  179.6489   17.9087   44.9837 H   0  0  0  0  0  0  0  0  0  0  0  0
  181.4038   18.2922   44.9837 H   0  0  0  0  0  0  0  0  0  0  0  0
  1  2  2  0
  2  3  1  0
  3  4  2  0
  4  5  1  0
  5  6  1  0
  6  7  1  0
  7  8  1  0
  8  9  2  0
  9 10  1  0
 10 11  2  0
 11 12  1  0
 12 13  1  0
 12 14  2  0
 14 15  1  0
 15 16  2  0
 15 17  1  0
 17 18  1  0
  5 19  2  0
 19 20  1  0
 20 21  2  0
 21 22  1  0
 22 23  1  0
 21  3  1  0
 17  6  2  0
 14  8  1  0
  1 24  1  0
  1 25  1  0
  2 26  1  0
  4 27  1  0
  9 28  1  0
 10 29  1  0
 11 30  1  0
 13 31  1  0
 18 32  1  0
 19 33  1  0
 20 34  1  0
 22 35  1  0
 22 36  1  0
 23 37  1  0
 23 38  1  0
 23 39  1  0
M  END
>  <meeko>  (8) 
{"is_sidechain": [false], "free_energy": -7.125, "intermolecular_energy": -8.795, "internal_energy": -0.484}

$$$$
cand_046_out
     RDKit          3D

 39 41  0  0  0  0  0  0  0  0999 V2000
  180.8230   18.3280   44.7470 C   0  0  0  0  0  0  0  0  0  0  0  0
  180.0120   18.5790   45.7820 C   0  0  0  0  0  0  0  0  0  0  0  0
  179.9620   19.8770   46.4710 C   0  0  0  0  0  0  0  0  0  0  0  0
  181.1510   20.4140   46.9990 C   0  0  0  0  0  0  0  0  0  0  0  0
  181.1770   21.6640   47.6350 C   0  0  0  0  0  0  0  0  0  0  0  0
  182.4430   22.1750   48.2020 C   0  0  0  0  0  0  0  0  0  0  0  0
  183.1500   22.9740   47.3100 O   0  0  0  0  0  0  0  0  0  0  0  0
  184.3440   23.5170   47.7090 C   0  0  0  0  0  0  0  0  0  0  0  0
  185.0250   24.3010   46.7770 C   0  0  0  0  0  0  0  0  0  0  0  0
  186.2480   24.8850   47.1190 C   0  0  0  0  0  0  0  0  0  0  0  0
  186.7860   24.6870   48.3920 C   0  0  0  0  0  0  0  0  0  0  0  0
  186.1040   23.9040   49.3200 C   0  0  0  0  0  0  0  0  0  0  0  0
  186.6880   23.7500   50.5480 O   0  0  0  0  0  0  0  0  0  0  0  0
  184.8820   23.3190   48.9760 C   0  0  0  0  0  0  0  0  0  0  0  0
  184.1320   22.4890   49.9220 C   0  0  0  0  0  0  0  0  0  0  0  0
  184.5380   22.2730   51.0620 O   0  0  0  0  0  0  0  0  0  0  0  0
  182.8510   21.9100   49.4570 C   0  0  0  0  0  0  0  0  0  0  0  0
  182.1440   21.1400   50.3620 O   0  0  0  0  0  0  0  0  0  0  0  0
  179.9800   22.3770   47.7470 C   0  0  0  0  0  0  0  0  0  0  0  0
  178.7930   21.8620   47.2210 C   0  0  0  0  0  0  0  0  0  0  0  0
  178.7660   20.6120   46.5790 C   0  0  0  0  0  0  0  0  0  0  0  0
  177.4470   20.1210   46.0250 C   0  0  0  0  0  0  0  0  0  0  0  0
  176.2650   20.8800   46.6090 C   0  0  0  0  0  0  0  0  0  0  0  0
  180.8164   17.3364   44.2710 H   0  0  0  0  0  0  0  0  0  0  0  0
  181.4960   19.1134   44.3725 H   0  0  0  0  0  0  0  0  0  0  0  0
  179.3501   17.7743   46.1346 H   0  0  0  0  0  0  0  0  0  0  0  0
  182.0842   19.8385   46.9106 H   0  0  0  0  0  0  0  0  0  0  0  0
  184.6001   24.4592   45.7748 H   0  0  0  0  0  0  0  0  0  0  0  0
  186.7871   25.5012   46.3844 H   0  0  0  0  0  0  0  0  0  0  0  0
  187.7473   25.1488   48.6616 H   0  0  0  0  0  0  0  0  0  0  0  0
  186.4450   24.3120   51.2560 H   0  0  0  0  0  0  0  0  0  0  0  0
  182.5600   20.4150   50.7860 H   0  0  0  0  0  0  0  0  0  0  0  0
  179.9727   23.3530   48.2542 H   0  0  0  0  0  0  0  0  0  0  0  0
  177.8641   22.4443   47.3107 H   0  0  0  0  0  0  0  0  0  0  0  0
  177.4493   20.2533   44.9330 H   0  0  0  0  0  0  0  0  0  0  0  0
  177.3379   19.0609   46.2975 H   0  0  0  0  0  0  0  0  0  0  0  0
  176.3151   20.8478   47.7074 H   0  0  0  0  0  0  0  0  0  0  0  0
  176.2979   21.9262   46.2709 H   0  0  0  0  0  0  0  0  0  0  0  0
  175.3273   20.4147   46.2709 H   0  0  0  0  0  0  0  0  0  0  0  0
  1  2  2  0
  2  3  1  0
  3  4  2  0
  4  5  1  0
  5  6  1  0
  6  7  1  0
  7  8  1  0
  8  9  2  0
  9 10  1  0
 10 11  2  0
 11 12  1  0
 12 13  1  0
 12 14  2  0
 14 15  1  0
 15 16  2  0
 15 17  1  0
 17 18  1  0
  5 19  2  0
 19 20  1  0
 20 21  2  0
 21 22  1  0
 22 23  1  0
 21  3  1  0
 17  6  2  0
 14  8  1  0
  1 24  1  0
  1 25  1  0
  2 26  1  0
  4 27  1  0
  9 28  1  0
 10 29  1  0
 11 30  1  0
 13 31  1  0
 18 32  1  0
 19 33  1  0
 20 34  1  0
 22 35  1  0
 22 36  1  0
 23 37  1  0
 23 38  1  0
 23 39  1  0
M  END
>  <meeko>  (9) 
{"is_sidechain": [false], "free_energy": -7.081, "intermolecular_energy": -8.59, "internal_energy": -0.634}

$$$$
