cand_022_out
     RDKit          3D

 41 43  0  0  0  0  0  0  0  0999 V2000
  180.2040   18.9140   45.8510 C   0  0  0  0  0  0  0  0  0  0  0  0
  179.6520   19.9910   46.7710 C   0  0  0  0  0  0  0  0  0  0  0  0
  178.3460   20.5730   46.2280 C   0  0  0  0  0  0  0  0  0  0  0  0
  177.2210   20.4570   47.2330 C   0  0  0  0  0  0  0  0  0  0  0  0
  177.1240   21.4360   48.2420 C   0  0  0  0  0  0  0  0  0  0  0  0
  176.1240   21.3890   49.2240 C   0  0  0  0  0  0  0  0  0  0  0  0
  176.0050   22.4280   50.2660 C   0  0  0  0  0  0  0  0  0  0  0  0
  175.4420   23.6080   49.7920 O   0  0  0  0  0  0  0  0  0  0  0  0
  175.2740   24.6580   50.6580 C   0  0  0  0  0  0  0  0  0  0  0  0
  174.7190   25.8270   50.1350 C   0  0  0  0  0  0  0  0  0  0  0  0
  174.5190   26.9340   50.9640 C   0  0  0  0  0  0  0  0  0  0  0  0
  174.8730   26.8710   52.3130 C   0  0  0  0  0  0  0  0  0  0  0  0
  175.4250   25.7030   52.8320 C   0  0  0  0  0  0  0  0  0  0  0  0
  175.7480   25.7100   54.1610 O   0  0  0  0  0  0  0  0  0  0  0  0
  175.6260   24.5960   52.0020 C   0  0  0  0  0  0  0  0  0  0  0  0
  176.2050   23.3500   52.5070 C   0  0  0  0  0  0  0  0  0  0  0  0
  176.5350   23.2160   53.6840 O   0  0  0  0  0  0  0  0  0  0  0  0
  176.3830   22.2390   51.5440 C   0  0  0  0  0  0  0  0  0  0  0  0
  176.9190   21.0620   52.0350 O   0  0  0  0  0  0  0  0  0  0  0  0
  175.1960   20.3430   49.1730 C   0  0  0  0  0  0  0  0  0  0  0  0
  175.2800   19.3610   48.1820 C   0  0  0  0  0  0  0  0  0  0  0  0
  176.2910   19.3990   47.2110 C   0  0  0  0  0  0  0  0  0  0  0  0
  176.3350   18.3210   46.1630 C   0  0  0  0  0  0  0  0  0  0  0  0
  180.6234   18.0957   46.4547 H   0  0  0  0  0  0  0  0  0  0  0  0
  179.3947   18.5238   45.2163 H   0  0  0  0  0  0  0  0  0  0  0  0
  180.9933   19.3432   45.2163 H   0  0  0  0  0  0  0  0  0  0  0  0
  179.4638   19.5529   47.7623 H   0  0  0  0  0  0  0  0  0  0  0  0
  180.3917   20.8025   46.8370 H   0  0  0  0  0  0  0  0  0  0  0  0
  178.5016   21.6352   45.9882 H   0  0  0  0  0  0  0  0  0  0  0  0
  178.0639   20.0034   45.3303 H   0  0  0  0  0  0  0  0  0  0  0  0
  177.8528   22.2597   48.2598 H   0  0  0  0  0  0  0  0  0  0  0  0
  174.4396   25.8768   49.0723 H   0  0  0  0  0  0  0  0  0  0  0  0
  174.0821   27.8562   50.5532 H   0  0  0  0  0  0  0  0  0  0  0  0
  174.7160   27.7430   52.9649 H   0  0  0  0  0  0  0  0  0  0  0  0
  175.8100   26.5220   54.6240 H   0  0  0  0  0  0  0  0  0  0  0  0
  176.8650   20.8690   52.9510 H   0  0  0  0  0  0  0  0  0  0  0  0
  174.3913   20.2930   49.9213 H   0  0  0  0  0  0  0  0  0  0  0  0
  174.5417   18.5458   48.1635 H   0  0  0  0  0  0  0  0  0  0  0  0
  176.3752   17.3362   46.6514 H   0  0  0  0  0  0  0  0  0  0  0  0
  175.4336   18.3826   45.5356 H   0  0  0  0  0  0  0  0  0  0  0  0
  177.2284   18.4558   45.5356 H   0  0  0  0  0  0  0  0  0  0  0  0
  1  2  1  0
  2  3  1  0
  3  4  1  0
  4  5  2  0
  5  6  1  0
  6  7  1  0
  7  8  1  0
  8  9  1  0
  9 10  2  0
 10 11  1  0
 11 12  2  0
 12 13  1  0
 13 14  1  0
 13 15  2  0
 15 16  1  0
 16 17  2  0
 16 18  1  0
 18 19  1  0
  6 20  2  0
 20 21  1  0
 21 22  2  0
 22 23  1  0
 22  4  1  0
 18  7  2  0
 15  9  1  0
  1 24  1  0
  1 25  1  0
  1 26  1  0
  2 27  1  0
  2 28  1  0
  3 29  1  0
  3 30  1  0
  5 31  1  0
 10 32  1  0
 11 33  1  0
 12 34  1  0
 14 35  1  0
 19 36  1  0
 20 37  1  0
 21 38  1  0
 23 39  1  0
 23 40  1  0
 23 41  1  0
M  END
>  <meeko>  (1) 
{"is_sidechain": [false], "free_energy": -7.345, "intermolecular_energy": -9.062, "internal_energy": -0.637}

$$$$
cand_022_out
     RDKit          3D

 41 43  0  0  0  0  0  0  0  0999 V2000
  175.5350   18.1780   46.8450 C   0  0  0  0  0  0  0  0  0  0  0  0
  176.2990   19.3220   46.1970 C   0  0  0  0  0  0  0  0  0  0  0  0
  177.7900   19.2600   46.5360 C   0  0  0  0  0  0  0  0  0  0  0  0
  178.2540   20.5100   47.2510 C   0  0  0  0  0  0  0  0  0  0  0  0
  177.4370   21.0370   48.2720 C   0  0  0  0  0  0  0  0  0  0  0  0
  177.7840   22.2030   48.9680 C   0  0  0  0  0  0  0  0  0  0  0  0
  176.9430   22.7410   50.0560 C   0  0  0  0  0  0  0  0  0  0  0  0
  175.8350   23.4380   49.5880 O   0  0  0  0  0  0  0  0  0  0  0  0
  174.9670   23.9910   50.4950 C   0  0  0  0  0  0  0  0  0  0  0  0
  173.8770   24.6950   49.9810 C   0  0  0  0  0  0  0  0  0  0  0  0
  172.9540   25.2820   50.8500 C   0  0  0  0  0  0  0  0  0  0  0  0
  173.1210   25.1650   52.2320 C   0  0  0  0  0  0  0  0  0  0  0  0
  174.2100   24.4620   52.7420 C   0  0  0  0  0  0  0  0  0  0  0  0
  174.3130   24.3850   54.1040 O   0  0  0  0  0  0  0  0  0  0  0  0
  175.1330   23.8750   51.8710 C   0  0  0  0  0  0  0  0  0  0  0  0
  176.2920   23.1290   52.3660 C   0  0  0  0  0  0  0  0  0  0  0  0
  176.5020   22.9760   53.5680 O   0  0  0  0  0  0  0  0  0  0  0  0
  177.2140   22.5530   51.3610 C   0  0  0  0  0  0  0  0  0  0  0  0
  178.2970   21.8390   51.8390 O   0  0  0  0  0  0  0  0  0  0  0  0
  178.9870   22.8370   48.6370 C   0  0  0  0  0  0  0  0  0  0  0  0
  179.8060   22.3320   47.6240 C   0  0  0  0  0  0  0  0  0  0  0  0
  179.4490   21.1750   46.9160 C   0  0  0  0  0  0  0  0  0  0  0  0
  180.3690   20.6690   45.8390 C   0  0  0  0  0  0  0  0  0  0  0  0
  175.5962   18.2697   47.9395 H   0  0  0  0  0  0  0  0  0  0  0  0
  174.4812   18.2172   46.5321 H   0  0  0  0  0  0  0  0  0  0  0  0
  175.9750   17.2196   46.5321 H   0  0  0  0  0  0  0  0  0  0  0  0
  176.1772   19.2608   45.1055 H   0  0  0  0  0  0  0  0  0  0  0  0
  175.8954   20.2700   46.5821 H   0  0  0  0  0  0  0  0  0  0  0  0
  177.9723   18.3902   47.1842 H   0  0  0  0  0  0  0  0  0  0  0  0
  178.3524   19.1749   45.5945 H   0  0  0  0  0  0  0  0  0  0  0  0
  176.5015   20.5188   48.5294 H   0  0  0  0  0  0  0  0  0  0  0  0
  173.7448   24.7876   48.8929 H   0  0  0  0  0  0  0  0  0  0  0  0
  172.0947   25.8370   50.4455 H   0  0  0  0  0  0  0  0  0  0  0  0
  172.3940   25.6271   52.9161 H   0  0  0  0  0  0  0  0  0  0  0  0
  175.0200   24.8150   54.5440 H   0  0  0  0  0  0  0  0  0  0  0  0
  179.1690   22.1180   51.6370 H   0  0  0  0  0  0  0  0  0  0  0  0
  179.2913   23.7435   49.1808 H   0  0  0  0  0  0  0  0  0  0  0  0
  180.7449   22.8496   47.3780 H   0  0  0  0  0  0  0  0  0  0  0  0
  181.2439   20.1878   46.3004 H   0  0  0  0  0  0  0  0  0  0  0  0
  179.8351   19.9376   45.2145 H   0  0  0  0  0  0  0  0  0  0  0  0
  180.7008   21.5116   45.2145 H   0  0  0  0  0  0  0  0  0  0  0  0
  1  2  1  0
  2  3  1  0
  3  4  1  0
  4  5  2  0
  5  6  1  0
  6  7  1  0
  7  8  1  0
  8  9  1  0
  9 10  2  0
 10 11  1  0
 11 12  2  0
 12 13  1  0
 13 14  1  0
 13 15  2  0
 15 16  1  0
 16 17  2  0
 16 18  1  0
 18 19  1  0
  6 20  2  0
 20 21  1  0
 21 22  2  0
 22 23  1  0
 22  4  1  0
 18  7  2  0
 15  9  1  0
  1 24  1  0
  1 25  1  0
  1 26  1  0
  2 27  1  0
  2 28  1  0
  3 29  1  0
  3 30  1  0
  5 31  1  0
 10 32  1  0
 11 33  1  0
 12 34  1  0
 14 35  1  0
 19 36  1  0
 20 37  1  0
 21 38  1  0
 23 39  1  0
 23 40  1  0
 23 41  1  0
M  END
>  <meeko>  (2) 
{"is_sidechain": [false], "free_energy": -7.057, "intermolecular_energy": -8.747, "internal_energy": -0.598}

$$$$
cand_022_out
     RDKit          3D

 41 43  0  0  0  0  0  0  0  0999 V2000
  173.5240   25.9720   52.7400 C   0  0  0  0  0  0  0  0  0  0  0  0
  174.4560   26.7030   51.7870 C   0  0  0  0  0  0  0  0  0  0  0  0
  174.0980   26.4170   50.3280 C   0  0  0  0  0  0  0  0  0  0  0  0
  174.3440   24.9680   49.9640 C   0  0  0  0  0  0  0  0  0  0  0  0
  175.6660   24.4820   50.0200 C   0  0  0  0  0  0  0  0  0  0  0  0
  175.9810   23.1590   49.6780 C   0  0  0  0  0  0  0  0  0  0  0  0
  177.3620   22.6410   49.7610 C   0  0  0  0  0  0  0  0  0  0  0  0
  177.7830   22.0330   48.5840 O   0  0  0  0  0  0  0  0  0  0  0  0
  179.0490   21.5080   48.5250 C   0  0  0  0  0  0  0  0  0  0  0  0
  179.4240   20.8940   47.3290 C   0  0  0  0  0  0  0  0  0  0  0  0
  180.6990   20.3400   47.2010 C   0  0  0  0  0  0  0  0  0  0  0  0
  181.6000   20.4000   48.2670 C   0  0  0  0  0  0  0  0  0  0  0  0
  181.2220   21.0130   49.4590 C   0  0  0  0  0  0  0  0  0  0  0  0
  182.1520   21.0370   50.4630 O   0  0  0  0  0  0  0  0  0  0  0  0
  179.9450   21.5670   49.5870 C   0  0  0  0  0  0  0  0  0  0  0  0
  179.5090   22.2200   50.8230 C   0  0  0  0  0  0  0  0  0  0  0  0
  180.2460   22.3180   51.8010 O   0  0  0  0  0  0  0  0  0  0  0  0
  178.1340   22.7680   50.8580 C   0  0  0  0  0  0  0  0  0  0  0  0
  177.7370   23.3940   52.0250 O   0  0  0  0  0  0  0  0  0  0  0  0
  174.9390   22.3100   49.2920 C   0  0  0  0  0  0  0  0  0  0  0  0
  173.6240   22.7760   49.2270 C   0  0  0  0  0  0  0  0  0  0  0  0
  173.3110   24.1050   49.5510 C   0  0  0  0  0  0  0  0  0  0  0  0
  171.8790   24.5560   49.4700 C   0  0  0  0  0  0  0  0  0  0  0  0
  173.8108   26.1969   53.7779 H   0  0  0  0  0  0  0  0  0  0  0  0
  172.4892   26.3018   52.5658 H   0  0  0  0  0  0  0  0  0  0  0  0
  173.5977   24.8884   52.5658 H   0  0  0  0  0  0  0  0  0  0  0  0
  174.3777   27.7850   51.9693 H   0  0  0  0  0  0  0  0  0  0  0  0
  175.4821   26.3502   51.9674 H   0  0  0  0  0  0  0  0  0  0  0  0
  173.0343   26.6485   50.1701 H   0  0  0  0  0  0  0  0  0  0  0  0
  174.7373   27.0440   49.6891 H   0  0  0  0  0  0  0  0  0  0  0  0
  176.4720   25.1585   50.3405 H   0  0  0  0  0  0  0  0  0  0  0  0
  178.7160   20.8467   46.4885 H   0  0  0  0  0  0  0  0  0  0  0  0
  180.9948   19.8553   46.2589 H   0  0  0  0  0  0  0  0  0  0  0  0
  182.6049   19.9644   48.1651 H   0  0  0  0  0  0  0  0  0  0  0  0
  182.9850   20.6260   50.3390 H   0  0  0  0  0  0  0  0  0  0  0  0
  178.0670   24.2450   52.2360 H   0  0  0  0  0  0  0  0  0  0  0  0
  175.1577   21.2627   49.0365 H   0  0  0  0  0  0  0  0  0  0  0  0
  172.8213   22.0907   48.9171 H   0  0  0  0  0  0  0  0  0  0  0  0
  171.4765   24.6828   50.4858 H   0  0  0  0  0  0  0  0  0  0  0  0
  171.8262   25.5143   48.9325 H   0  0  0  0  0  0  0  0  0  0  0  0
  171.2866   23.8009   48.9325 H   0  0  0  0  0  0  0  0  0  0  0  0
  1  2  1  0
  2  3  1  0
  3  4  1  0
  4  5  2  0
  5  6  1  0
  6  7  1  0
  7  8  1  0
  8  9  1  0
  9 10  2  0
 10 11  1  0
 11 12  2  0
 12 13  1  0
 13 14  1  0
 13 15  2  0
 15 16  1  0
 16 17  2  0
 16 18  1  0
 18 19  1  0
  6 20  2  0
 20 21  1  0
 21 22  2  0
 22 23  1  0
 22  4  1  0
 18  7  2  0
 15  9  1  0
  1 24  1  0
  1 25  1  0
  1 26  1  0
  2 27  1  0
  2 28  1  0
  3 29  1  0
  3 30  1  0
  5 31  1  0
 10 32  1  0
 11 33  1  0
 12 34  1  0
 14 35  1  0
 19 36  1  0
 20 37  1  0
 21 38  1  0
 23 39  1  0
 23 40  1  0
 23 41  1  0
M  END
>  <meeko>  (3) 
{"is_sidechain": [false], "free_energy": -6.911, "intermolecular_energy": -8.649, "internal_energy": -0.515}

$$$$
cand_022_out
     RDKit          3D

 41 43  0  0  0  0  0  0  0  0999 V2000
  180.4680   23.0520   47.8170 C   0  0  0  0  0  0  0  0  0  0  0  0
  179.3020   23.9300   48.2440 C   0  0  0  0  0  0  0  0  0  0  0  0
  178.0810   23.7100   47.3500 C   0  0  0  0  0  0  0  0  0  0  0  0
  177.0920   22.7520   47.9780 C   0  0  0  0  0  0  0  0  0  0  0  0
  176.2730   23.2290   49.0210 C   0  0  0  0  0  0  0  0  0  0  0  0
  175.3470   22.4000   49.6700 C   0  0  0  0  0  0  0  0  0  0  0  0
  174.4680   22.9050   50.7450 C   0  0  0  0  0  0  0  0  0  0  0  0
  175.1730   23.3050   51.8750 O   0  0  0  0  0  0  0  0  0  0  0  0
  174.4770   23.7960   52.9510 C   0  0  0  0  0  0  0  0  0  0  0  0
  175.2230   24.1710   54.0700 C   0  0  0  0  0  0  0  0  0  0  0  0
  174.5770   24.6800   55.1980 C   0  0  0  0  0  0  0  0  0  0  0  0
  173.1870   24.8140   55.2090 C   0  0  0  0  0  0  0  0  0  0  0  0
  172.4460   24.4400   54.0920 C   0  0  0  0  0  0  0  0  0  0  0  0
  171.0890   24.5980   54.1690 O   0  0  0  0  0  0  0  0  0  0  0  0
  173.0930   23.9290   52.9620 C   0  0  0  0  0  0  0  0  0  0  0  0
  172.3500   23.5230   51.7670 C   0  0  0  0  0  0  0  0  0  0  0  0
  171.1270   23.6180   51.6990 O   0  0  0  0  0  0  0  0  0  0  0  0
  173.1300   22.9880   50.6280 C   0  0  0  0  0  0  0  0  0  0  0  0
  172.4200   22.6190   49.5000 O   0  0  0  0  0  0  0  0  0  0  0  0
  175.2350   21.0720   49.2450 C   0  0  0  0  0  0  0  0  0  0  0  0
  176.0430   20.5820   48.2160 C   0  0  0  0  0  0  0  0  0  0  0  0
  176.9830   21.4060   47.5790 C   0  0  0  0  0  0  0  0  0  0  0  0
  177.8240   20.8310   46.4730 C   0  0  0  0  0  0  0  0  0  0  0  0
  180.9817   22.6652   48.7094 H   0  0  0  0  0  0  0  0  0  0  0  0
  180.0926   22.2104   47.2164 H   0  0  0  0  0  0  0  0  0  0  0  0
  181.1731   23.6454   47.2164 H   0  0  0  0  0  0  0  0  0  0  0  0
  179.0333   23.6877   49.2828 H   0  0  0  0  0  0  0  0  0  0  0  0
  179.6105   24.9822   48.1557 H   0  0  0  0  0  0  0  0  0  0  0  0
  177.5834   24.6766   47.1821 H   0  0  0  0  0  0  0  0  0  0  0  0
  178.4254   23.2735   46.4009 H   0  0  0  0  0  0  0  0  0  0  0  0
  176.3626   24.2796   49.3343 H   0  0  0  0  0  0  0  0  0  0  0  0
  176.3179   24.0656   54.0628 H   0  0  0  0  0  0  0  0  0  0  0  0
  175.1640   24.9761   56.0799 H   0  0  0  0  0  0  0  0  0  0  0  0
  172.6789   25.2143   56.0987 H   0  0  0  0  0  0  0  0  0  0  0  0
  170.6350   25.0770   53.5040 H   0  0  0  0  0  0  0  0  0  0  0  0
  172.6010   21.8030   49.0780 H   0  0  0  0  0  0  0  0  0  0  0  0
  174.5031   20.4065   49.7260 H   0  0  0  0  0  0  0  0  0  0  0  0
  175.9405   19.5333   47.9002 H   0  0  0  0  0  0  0  0  0  0  0  0
  178.6588   20.2603   46.9060 H   0  0  0  0  0  0  0  0  0  0  0  0
  177.2073   20.1646   45.8520 H   0  0  0  0  0  0  0  0  0  0  0  0
  178.2211   21.6475   45.8520 H   0  0  0  0  0  0  0  0  0  0  0  0
  1  2  1  0
  2  3  1  0
  3  4  1  0
  4  5  2  0
  5  6  1  0
  6  7  1  0
  7  8  1  0
  8  9  1  0
  9 10  2  0
 10 11  1  0
 11 12  2  0
 12 13  1  0
 13 14  1  0
 13 15  2  0
 15 16  1  0
 16 17  2  0
 16 18  1  0
 18 19  1  0
  6 20  2  0
 20 21  1  0
 21 22  2  0
 22 23  1  0
 22  4  1  0
 18  7  2  0
 15  9  1  0
  1 24  1  0
  1 25  1  0
  1 26  1  0
  2 27  1  0
  2 28  1  0
  3 29  1  0
  3 30  1  0
  5 31  1  0
 10 32  1  0
 11 33  1  0
 12 34  1  0
 14 35  1  0
 19 36  1  0
 20 37  1  0
 21 38  1  0
 23 39  1  0
 23 40  1  0
 23 41  1  0
M  END
>  <meeko>  (4) 
{"is_sidechain": [false], "free_energy": -6.898, "intermolecular_energy": -8.57, "internal_energy": -0.578}

$$$$
cand_022_out
     RDKit          3D

 41 43  0  0  0  0  0  0  0  0999 V2000
  183.2690   21.9780   48.7150 C   0  0  0  0  0  0  0  0  0  0  0  0
  182.3840   20.9560   48.0200 C   0  0  0  0  0  0  0  0  0  0  0  0
  181.4150   21.6280   47.0460 C   0  0  0  0  0  0  0  0  0  0  0  0
  180.0030   21.1100   47.2140 C   0  0  0  0  0  0  0  0  0  0  0  0
  179.2050   21.6680   48.2330 C   0  0  0  0  0  0  0  0  0  0  0  0
  177.8950   21.2290   48.4690 C   0  0  0  0  0  0  0  0  0  0  0  0
  177.0480   21.8310   49.5190 C   0  0  0  0  0  0  0  0  0  0  0  0
  175.8620   22.3590   49.0210 O   0  0  0  0  0  0  0  0  0  0  0  0
  174.9820   22.9490   49.8910 C   0  0  0  0  0  0  0  0  0  0  0  0
  173.8100   23.4780   49.3460 C   0  0  0  0  0  0  0  0  0  0  0  0
  172.8710   24.0920   50.1770 C   0  0  0  0  0  0  0  0  0  0  0  0
  173.1000   24.1760   51.5520 C   0  0  0  0  0  0  0  0  0  0  0  0
  174.2690   23.6470   52.0930 C   0  0  0  0  0  0  0  0  0  0  0  0
  174.4310   23.7620   53.4460 O   0  0  0  0  0  0  0  0  0  0  0  0
  175.2100   23.0330   51.2610 C   0  0  0  0  0  0  0  0  0  0  0  0
  176.4510   22.4650   51.7890 C   0  0  0  0  0  0  0  0  0  0  0  0
  176.7210   22.4930   52.9890 O   0  0  0  0  0  0  0  0  0  0  0  0
  177.3850   21.8440   50.8230 C   0  0  0  0  0  0  0  0  0  0  0  0
  178.5480   21.2980   51.3340 O   0  0  0  0  0  0  0  0  0  0  0  0
  177.3770   20.2210   47.6490 C   0  0  0  0  0  0  0  0  0  0  0  0
  178.1560   19.6530   46.6370 C   0  0  0  0  0  0  0  0  0  0  0  0
  179.4730   20.0800   46.4130 C   0  0  0  0  0  0  0  0  0  0  0  0
  180.2680   19.4400   45.3080 C   0  0  0  0  0  0  0  0  0  0  0  0
  183.1721   21.8661   49.8050 H   0  0  0  0  0  0  0  0  0  0  0  0
  184.3166   21.8158   48.4215 H   0  0  0  0  0  0  0  0  0  0  0  0
  182.9587   22.9917   48.4215 H   0  0  0  0  0  0  0  0  0  0  0  0
  183.0197   20.2515   47.4636 H   0  0  0  0  0  0  0  0  0  0  0  0
  181.7957   20.4295   48.7859 H   0  0  0  0  0  0  0  0  0  0  0  0
  181.4208   22.7127   47.2288 H   0  0  0  0  0  0  0  0  0  0  0  0
  181.7446   21.3990   46.0218 H   0  0  0  0  0  0  0  0  0  0  0  0
  179.6217   22.4699   48.8602 H   0  0  0  0  0  0  0  0  0  0  0  0
  173.6269   23.4110   48.2634 H   0  0  0  0  0  0  0  0  0  0  0  0
  171.9488   24.5105   49.7477 H   0  0  0  0  0  0  0  0  0  0  0  0
  172.3589   24.6588   52.2060 H   0  0  0  0  0  0  0  0  0  0  0  0
  173.7500   24.1390   53.9680 H   0  0  0  0  0  0  0  0  0  0  0  0
  178.7370   20.3900   51.2040 H   0  0  0  0  0  0  0  0  0  0  0  0
  176.3453   19.8715   47.8023 H   0  0  0  0  0  0  0  0  0  0  0  0
  177.7296   18.8589   46.0065 H   0  0  0  0  0  0  0  0  0  0  0  0
  181.0552   18.8063   45.7423 H   0  0  0  0  0  0  0  0  0  0  0  0
  179.6019   18.8233   44.6868 H   0  0  0  0  0  0  0  0  0  0  0  0
  180.7283   20.2225   44.6868 H   0  0  0  0  0  0  0  0  0  0  0  0
  1  2  1  0
  2  3  1  0
  3  4  1  0
  4  5  2  0
  5  6  1  0
  6  7  1  0
  7  8  1  0
  8  9  1  0
  9 10  2  0
 10 11  1  0
 11 12  2  0
 12 13  1  0
 13 14  1  0
 13 15  2  0
 15 16  1  0
 16 17  2  0
 16 18  1  0
 18 19  1  0
  6 20  2  0
 20 21  1  0
 21 22  2  0
 22 23  1  0
 22  4  1  0
 18  7  2  0
 15  9  1  0
  1 24  1  0
  1 25  1  0
  1 26  1  0
  2 27  1  0
  2 28  1  0
  3 29  1  0
  3 30  1  0
  5 31  1  0
 10 32  1  0
 11 33  1  0
 12 34  1  0
 14 35  1  0
 19 36  1  0
 20 37  1  0
 21 38  1  0
 23 39  1  0
 23 40  1  0
 23 41  1  0
M  END
>  <meeko>  (5) 
{"is_sidechain": [false], "free_energy": -6.898, "intermolecular_energy": -8.691, "internal_energy": -0.457}

$$$$
cand_022_out
     RDKit          3D

 41 43  0  0  0  0  0  0  0  0999 V2000
  175.5470   19.9910   49.7280 C   0  0  0  0  0  0  0  0  0  0  0  0
  176.0360   21.4160   49.5250 C   0  0  0  0  0  0  0  0  0  0  0  0
  176.3690   21.6880   48.0570 C   0  0  0  0  0  0  0  0  0  0  0  0
  177.7270   21.1390   47.6800 C   0  0  0  0  0  0  0  0  0  0  0  0
  178.8720   21.7730   48.2050 C   0  0  0  0  0  0  0  0  0  0  0  0
  180.1670   21.3400   47.8880 C   0  0  0  0  0  0  0  0  0  0  0  0
  181.3670   21.9860   48.4580 C   0  0  0  0  0  0  0  0  0  0  0  0
  181.7980   23.0780   47.7140 O   0  0  0  0  0  0  0  0  0  0  0  0
  182.9050   23.7720   48.1340 C   0  0  0  0  0  0  0  0  0  0  0  0
  183.3110   24.8520   47.3490 C   0  0  0  0  0  0  0  0  0  0  0  0
  184.4290   25.6010   47.7200 C   0  0  0  0  0  0  0  0  0  0  0  0
  185.1410   25.2720   48.8760 C   0  0  0  0  0  0  0  0  0  0  0  0
  184.7330   24.1940   49.6580 C   0  0  0  0  0  0  0  0  0  0  0  0
  185.4740   23.9270   50.7760 O   0  0  0  0  0  0  0  0  0  0  0  0
  183.6140   23.4440   49.2850 C   0  0  0  0  0  0  0  0  0  0  0  0
  183.1520   22.3030   50.0780 C   0  0  0  0  0  0  0  0  0  0  0  0
  183.7210   21.9560   51.1110 O   0  0  0  0  0  0  0  0  0  0  0  0
  181.9610   21.5700   49.5920 C   0  0  0  0  0  0  0  0  0  0  0  0
  181.5260   20.5020   50.3560 O   0  0  0  0  0  0  0  0  0  0  0  0
  180.3060   20.2370   47.0390 C   0  0  0  0  0  0  0  0  0  0  0  0
  179.1830   19.5990   46.5060 C   0  0  0  0  0  0  0  0  0  0  0  0
  177.8870   20.0440   46.8090 C   0  0  0  0  0  0  0  0  0  0  0  0
  176.7110   19.3210   46.2130 C   0  0  0  0  0  0  0  0  0  0  0  0
  175.4740   19.7783   50.8048 H   0  0  0  0  0  0  0  0  0  0  0  0
  174.5571   19.8733   49.2631 H   0  0  0  0  0  0  0  0  0  0  0  0
  176.2561   19.2903   49.2631 H   0  0  0  0  0  0  0  0  0  0  0  0
  175.2497   22.1138   49.8488 H   0  0  0  0  0  0  0  0  0  0  0  0
  176.9510   21.5560   50.1192 H   0  0  0  0  0  0  0  0  0  0  0  0
  175.6045   21.2134   47.4243 H   0  0  0  0  0  0  0  0  0  0  0  0
  176.3856   22.7774   47.9055 H   0  0  0  0  0  0  0  0  0  0  0  0
  178.7455   22.6308   48.8818 H   0  0  0  0  0  0  0  0  0  0  0  0
  182.7507   25.1127   46.4390 H   0  0  0  0  0  0  0  0  0  0  0  0
  184.7499   26.4518   47.1010 H   0  0  0  0  0  0  0  0  0  0  0  0
  186.0217   25.8628   49.1680 H   0  0  0  0  0  0  0  0  0  0  0  0
  185.2000   24.2590   51.6090 H   0  0  0  0  0  0  0  0  0  0  0  0
  181.6130   19.6270   50.0320 H   0  0  0  0  0  0  0  0  0  0  0  0
  181.3112   19.8676   46.7880 H   0  0  0  0  0  0  0  0  0  0  0  0
  179.3168   18.7348   45.8387 H   0  0  0  0  0  0  0  0  0  0  0  0
  176.0740   18.9294   47.0198 H   0  0  0  0  0  0  0  0  0  0  0  0
  176.1289   20.0175   45.5916 H   0  0  0  0  0  0  0  0  0  0  0  0
  177.0697   18.4872   45.5916 H   0  0  0  0  0  0  0  0  0  0  0  0
  1  2  1  0
  2  3  1  0
  3  4  1  0
  4  5  2  0
  5  6  1  0
  6  7  1  0
  7  8  1  0
  8  9  1  0
  9 10  2  0
 10 11  1  0
 11 12  2  0
 12 13  1  0
 13 14  1  0
 13 15  2  0
 15 16  1  0
 16 17  2  0
 16 18  1  0
 18 19  1  0
  6 20  2  0
 20 21  1  0
 21 22  2  0
 22 23  1  0
 22  4  1  0
 18  7  2  0
 15  9  1  0
  1 24  1  0
  1 25  1  0
  1 26  1  0
  2 27  1  0
  2 28  1  0
  3 29  1  0
  3 30  1  0
  5 31  1  0
 10 32  1  0
 11 33  1  0
 12 34  1  0
 14 35  1  0
 19 36  1  0
 20 37  1  0
 21 38  1  0
 23 39  1  0
 23 40  1  0
 23 41  1  0
M  END
>  <meeko>  (6) 
{"is_sidechain": [false], "free_energy": -6.848, "intermolecular_energy": -8.344, "internal_energy": -0.743}

$$$$
cand_022_out
     RDKit          3D

 41 43  0  0  0  0  0  0  0  0999 V2000
  183.2600   26.4350   49.7760 C   0  0  0  0  0  0  0  0  0  0  0  0
  182.3940   26.4340   48.5260 C   0  0  0  0  0  0  0  0  0  0  0  0
  182.8480   25.3610   47.5350 C   0  0  0  0  0  0  0  0  0  0  0  0
  182.5990   23.9660   48.0660 C   0  0  0  0  0  0  0  0  0  0  0  0
  181.2700   23.5860   48.3430 C   0  0  0  0  0  0  0  0  0  0  0  0
  180.9550   22.3200   48.8580 C   0  0  0  0  0  0  0  0  0  0  0  0
  179.5610   21.9110   49.1230 C   0  0  0  0  0  0  0  0  0  0  0  0
  178.8590   21.5980   47.9650 O   0  0  0  0  0  0  0  0  0  0  0  0
  177.5500   21.2020   48.0690 C   0  0  0  0  0  0  0  0  0  0  0  0
  176.8800   20.9120   46.8790 C   0  0  0  0  0  0  0  0  0  0  0  0
  175.5460   20.5020   46.9140 C   0  0  0  0  0  0  0  0  0  0  0  0
  174.8820   20.3800   48.1360 C   0  0  0  0  0  0  0  0  0  0  0  0
  175.5530   20.6690   49.3220 C   0  0  0  0  0  0  0  0  0  0  0  0
  174.8450   20.5280   50.4830 O   0  0  0  0  0  0  0  0  0  0  0  0
  176.8890   21.0810   49.2860 C   0  0  0  0  0  0  0  0  0  0  0  0
  177.6310   21.3950   50.5090 C   0  0  0  0  0  0  0  0  0  0  0  0
  177.1180   21.3040   51.6220 O   0  0  0  0  0  0  0  0  0  0  0  0
  179.0380   21.8290   50.3620 C   0  0  0  0  0  0  0  0  0  0  0  0
  179.7340   22.1110   51.5240 O   0  0  0  0  0  0  0  0  0  0  0  0
  182.0010   21.4180   49.0800 C   0  0  0  0  0  0  0  0  0  0  0  0
  183.3250   21.7800   48.8150 C   0  0  0  0  0  0  0  0  0  0  0  0
  183.6410   23.0530   48.3170 C   0  0  0  0  0  0  0  0  0  0  0  0
  185.0810   23.3910   48.0450 C   0  0  0  0  0  0  0  0  0  0  0  0
  182.6163   26.4343   50.6680 H   0  0  0  0  0  0  0  0  0  0  0  0
  183.8961   25.5376   49.7821 H   0  0  0  0  0  0  0  0  0  0  0  0
  183.8940   27.3339   49.7821 H   0  0  0  0  0  0  0  0  0  0  0  0
  181.3505   26.2376   48.8134 H   0  0  0  0  0  0  0  0  0  0  0  0
  182.4859   27.4164   48.0397 H   0  0  0  0  0  0  0  0  0  0  0  0
  182.2936   25.4881   46.5935 H   0  0  0  0  0  0  0  0  0  0  0  0
  183.9299   25.4785   47.3749 H   0  0  0  0  0  0  0  0  0  0  0  0
  180.4577   24.3021   48.1499 H   0  0  0  0  0  0  0  0  0  0  0  0
  177.4023   21.0064   45.9155 H   0  0  0  0  0  0  0  0  0  0  0  0
  175.0169   20.2746   45.9768 H   0  0  0  0  0  0  0  0  0  0  0  0
  173.8310   20.0563   48.1622 H   0  0  0  0  0  0  0  0  0  0  0  0
  174.5910   19.6750   50.7760 H   0  0  0  0  0  0  0  0  0  0  0  0
  179.9400   21.4220   52.1250 H   0  0  0  0  0  0  0  0  0  0  0  0
  181.7792   20.4127   49.4674 H   0  0  0  0  0  0  0  0  0  0  0  0
  184.1317   21.0554   48.9998 H   0  0  0  0  0  0  0  0  0  0  0  0
  185.6147   23.5163   48.9987 H   0  0  0  0  0  0  0  0  0  0  0  0
  185.5460   22.5776   47.4687 H   0  0  0  0  0  0  0  0  0  0  0  0
  185.1355   24.3264   47.4687 H   0  0  0  0  0  0  0  0  0  0  0  0
  1  2  1  0
  2  3  1  0
  3  4  1  0
  4  5  2  0
  5  6  1  0
  6  7  1  0
  7  8  1  0
  8  9  1  0
  9 10  2  0
 10 11  1  0
 11 12  2  0
 12 13  1  0
 13 14  1  0
 13 15  2  0
 15 16  1  0
 16 17  2  0
 16 18  1  0
 18 19  1  0
  6 20  2  0
 20 21  1  0
 21 22  2  0
 22 23  1  0
 22  4  1  0
 18  7  2  0
 15  9  1  0
  1 24  1  0
  1 25  1  0
  1 26  1  0
  2 27  1  0
  2 28  1  0
  3 29  1  0
  3 30  1  0
  5 31  1  0
 10 32  1  0
 11 33  1  0
 12 34  1  0
 14 35  1  0
 19 36  1  0
 20 37  1  0
 21 38  1  0
 23 39  1  0
 23 40  1  0
 23 41  1  0
M  END
>  <meeko>  (7) 
{"is_sidechain": [false], "free_energy": -6.833, "intermolecular_energy": -8.336, "internal_energy": -0.733}

$$$$
cand_022_out
     RDKit          3D

 41 43  0  0  0  0  0  0  0  0999 V2000
  180.8720   17.1120   44.1240 C   0  0  0  0  0  0  0  0  0  0  0  0
  180.8530   18.4770   44.7940 C   0  0  0  0  0  0  0  0  0  0  0  0
  179.7300   18.5750   45.8270 C   0  0  0  0  0  0  0  0  0  0  0  0
  179.7210   19.9210   46.5190 C   0  0  0  0  0  0  0  0  0  0  0  0
  180.9350   20.4080   47.0460 C   0  0  0  0  0  0  0  0  0  0  0  0
  181.0080   21.6350   47.7200 C   0  0  0  0  0  0  0  0  0  0  0  0
  182.2840   22.1580   48.2490 C   0  0  0  0  0  0  0  0  0  0  0  0
  182.9460   22.9820   47.3470 O   0  0  0  0  0  0  0  0  0  0  0  0
  184.1470   23.5370   47.7130 C   0  0  0  0  0  0  0  0  0  0  0  0
  184.7840   24.3460   46.7700 C   0  0  0  0  0  0  0  0  0  0  0  0
  186.0080   24.9430   47.0790 C   0  0  0  0  0  0  0  0  0  0  0  0
  186.5950   24.7320   48.3290 C   0  0  0  0  0  0  0  0  0  0  0  0
  185.9560   23.9250   49.2670 C   0  0  0  0  0  0  0  0  0  0  0  0
  186.5850   23.7620   50.4710 O   0  0  0  0  0  0  0  0  0  0  0  0
  184.7310   23.3270   48.9570 C   0  0  0  0  0  0  0  0  0  0  0  0
  184.0280   22.4720   49.9150 C   0  0  0  0  0  0  0  0  0  0  0  0
  184.4770   22.2450   51.0370 O   0  0  0  0  0  0  0  0  0  0  0  0
  182.7400   21.8800   49.4850 C   0  0  0  0  0  0  0  0  0  0  0  0
  182.0780   21.0840   50.4020 O   0  0  0  0  0  0  0  0  0  0  0  0
  179.8380   22.3900   47.8470 C   0  0  0  0  0  0  0  0  0  0  0  0
  178.6250   21.9210   47.3350 C   0  0  0  0  0  0  0  0  0  0  0  0
  178.5490   20.6850   46.6770 C   0  0  0  0  0  0  0  0  0  0  0  0
  177.2200   20.2280   46.1390 C   0  0  0  0  0  0  0  0  0  0  0  0
  180.8829   16.3260   44.8935 H   0  0  0  0  0  0  0  0  0  0  0  0
  179.9753   16.9988   43.4969 H   0  0  0  0  0  0  0  0  0  0  0  0
  181.7715   17.0238   43.4969 H   0  0  0  0  0  0  0  0  0  0  0  0
  181.8173   18.6425   45.2967 H   0  0  0  0  0  0  0  0  0  0  0  0
  180.6802   19.2401   44.0208 H   0  0  0  0  0  0  0  0  0  0  0  0
  178.7651   18.4288   45.3194 H   0  0  0  0  0  0  0  0  0  0  0  0
  179.8966   17.7992   46.5888 H   0  0  0  0  0  0  0  0  0  0  0  0
  181.8495   19.8088   46.9249 H   0  0  0  0  0  0  0  0  0  0  0  0
  184.3225   24.5128   45.7855 H   0  0  0  0  0  0  0  0  0  0  0  0
  186.5108   25.5805   46.3369 H   0  0  0  0  0  0  0  0  0  0  0  0
  187.5594   25.2021   48.5717 H   0  0  0  0  0  0  0  0  0  0  0  0
  186.0960   23.4830   51.2200 H   0  0  0  0  0  0  0  0  0  0  0  0
  181.3520   21.4300   50.8840 H   0  0  0  0  0  0  0  0  0  0  0  0
  179.8726   23.3646   48.3559 H   0  0  0  0  0  0  0  0  0  0  0  0
  177.7165   22.5305   47.4499 H   0  0  0  0  0  0  0  0  0  0  0  0
  176.5456   19.9961   46.9765 H   0  0  0  0  0  0  0  0  0  0  0  0
  176.7794   21.0263   45.5236 H   0  0  0  0  0  0  0  0  0  0  0  0
  177.3635   19.3276   45.5236 H   0  0  0  0  0  0  0  0  0  0  0  0
  1  2  1  0
  2  3  1  0
  3  4  1  0
  4  5  2  0
  5  6  1  0
  6  7  1  0
  7  8  1  0
  8  9  1  0
  9 10  2  0
 10 11  1  0
 11 12  2  0
 12 13  1  0
 13 14  1  0
 13 15  2  0
 15 16  1  0
 16 17  2  0
 16 18  1  0
 18 19  1  0
  6 20  2  0
 20 21  1  0
 21 22  2  0
 22 23  1  0
 22  4  1  0
 18  7  2  0
 15  9  1  0
  1 24  1  0
  1 25  1  0
  1 26  1  0
  2 27  1  0
  2 28  1  0
  3 29  1  0
  3 30  1  0
  5 31  1  0
 10 32  1  0
 11 33  1  0
 12 34  1  0
 14 35  1  0
 19 36  1  0
 20 37  1  0
 21 38  1  0
 23 39  1  0
 23 40  1  0
 23 41  1  0
M  END
>  <meeko>  (8) 
{"is_sidechain": [false], "free_energy": -6.818, "intermolecular_energy": -8.463, "internal_energy": -0.586}

$$$$
cand_022_out
     RDKit          3D

 41 43  0  0  0  0  0  0  0  0999 V2000
  171.7840   24.5180   48.8730 C   0  0  0  0  0  0  0  0  0  0  0  0
  172.9230   23.6510   49.3850 C   0  0  0  0  0  0  0  0  0  0  0  0
  174.1380   24.4960   49.7700 C   0  0  0  0  0  0  0  0  0  0  0  0
  175.2920   23.6360   50.2380 C   0  0  0  0  0  0  0  0  0  0  0  0
  176.0750   22.9830   49.2640 C   0  0  0  0  0  0  0  0  0  0  0  0
  177.1480   22.1510   49.6150 C   0  0  0  0  0  0  0  0  0  0  0  0
  177.9850   21.4870   48.5950 C   0  0  0  0  0  0  0  0  0  0  0  0
  179.2610   22.0320   48.5050 O   0  0  0  0  0  0  0  0  0  0  0  0
  180.1430   21.5070   47.5950 C   0  0  0  0  0  0  0  0  0  0  0  0
  181.4080   22.0940   47.5290 C   0  0  0  0  0  0  0  0  0  0  0  0
  182.3550   21.6060   46.6250 C   0  0  0  0  0  0  0  0  0  0  0  0
  182.0380   20.5330   45.7890 C   0  0  0  0  0  0  0  0  0  0  0  0
  180.7760   19.9490   45.8590 C   0  0  0  0  0  0  0  0  0  0  0  0
  180.5320   18.9020   45.0130 O   0  0  0  0  0  0  0  0  0  0  0  0
  179.8280   20.4380   46.7630 C   0  0  0  0  0  0  0  0  0  0  0  0
  178.4900   19.8530   46.8670 C   0  0  0  0  0  0  0  0  0  0  0  0
  178.1390   18.9030   46.1700 O   0  0  0  0  0  0  0  0  0  0  0  0
  177.5580   20.4500   47.8510 C   0  0  0  0  0  0  0  0  0  0  0  0
  176.3010   19.8810   47.9500 O   0  0  0  0  0  0  0  0  0  0  0  0
  177.4450   21.9930   50.9730 C   0  0  0  0  0  0  0  0  0  0  0  0
  176.6770   22.6290   51.9520 C   0  0  0  0  0  0  0  0  0  0  0  0
  175.5920   23.4460   51.6010 C   0  0  0  0  0  0  0  0  0  0  0  0
  174.8000   24.1130   52.6920 C   0  0  0  0  0  0  0  0  0  0  0  0
  171.2314   24.9387   49.7260 H   0  0  0  0  0  0  0  0  0  0  0  0
  172.1922   25.3360   48.2613 H   0  0  0  0  0  0  0  0  0  0  0  0
  171.1042   23.9067   48.2613 H   0  0  0  0  0  0  0  0  0  0  0  0
  172.5794   23.0944   50.2694 H   0  0  0  0  0  0  0  0  0  0  0  0
  173.2214   22.9616   48.5815 H   0  0  0  0  0  0  0  0  0  0  0  0
  174.4596   25.0781   48.8938 H   0  0  0  0  0  0  0  0  0  0  0  0
  173.8464   25.1588   50.5980 H   0  0  0  0  0  0  0  0  0  0  0  0
  175.8378   23.1302   48.2000 H   0  0  0  0  0  0  0  0  0  0  0  0
  181.6586   22.9389   48.1873 H   0  0  0  0  0  0  0  0  0  0  0  0
  183.3520   22.0677   46.5716 H   0  0  0  0  0  0  0  0  0  0  0  0
  182.7838   20.1501   45.0768 H   0  0  0  0  0  0  0  0  0  0  0  0
  180.5840   18.0220   45.3310 H   0  0  0  0  0  0  0  0  0  0  0  0
  175.8080   19.9690   48.7430 H   0  0  0  0  0  0  0  0  0  0  0  0
  178.2933   21.3605   51.2737 H   0  0  0  0  0  0  0  0  0  0  0  0
  176.9270   22.4869   53.0137 H   0  0  0  0  0  0  0  0  0  0  0  0
  175.1823   23.7910   53.6719 H   0  0  0  0  0  0  0  0  0  0  0  0
  174.8978   25.2049   52.6010 H   0  0  0  0  0  0  0  0  0  0  0  0
  173.7407   23.8309   52.6010 H   0  0  0  0  0  0  0  0  0  0  0  0
  1  2  1  0
  2  3  1  0
  3  4  1  0
  4  5  2  0
  5  6  1  0
  6  7  1  0
  7  8  1  0
  8  9  1  0
  9 10  2  0
 10 11  1  0
 11 12  2  0
 12 13  1  0
 13 14  1  0
 13 15  2  0
 15 16  1  0
 16 17  2  0
 16 18  1  0
 18 19  1  0
  6 20  2  0
 20 21  1  0
 21 22  2  0
 22 23  1  0
 22  4  1  0
 18  7  2  0
 15  9  1  0
  1 24  1  0
  1 25  1  0
  1 26  1  0
  2 27  1  0
  2 28  1  0
  3 29  1  0
  3 30  1  0
  5 31  1  0
 10 32  1  0
 11 33  1  0
 12 34  1  0
 14 35  1  0
 19 36  1  0
 20 37  1  0
 21 38  1  0
 23 39  1  0
 23 40  1  0
 23 41  1  0
M  END
>  <meeko>  (9) 
{"is_sidechain": [false], "free_energy": -6.795, "intermolecular_energy": -8.475, "internal_energy": -0.546}

$$$$
