DTQ_out
     RDKit          3D

 37 39  0  0  0  0  0  0  0  0999 V2000
  175.8460   20.2750   49.9620 C   0  0  0  0  0  0  0  0  0  0  0  0
  176.2390   21.2170   48.9700 O   0  0  0  0  0  0  0  0  0  0  0  0
  177.1750   20.7850   48.0640 C   0  0  0  0  0  0  0  0  0  0  0  0
  178.4940   21.0760   48.4400 C   0  0  0  0  0  0  0  0  0  0  0  0
  179.5860   20.7130   47.6670 C   0  0  0  0  0  0  0  0  0  0  0  0
  180.8100   21.0550   48.0830 N   0  0  0  0  0  0  0  0  0  0  0  0
  181.8350   20.7110   47.2960 C   0  0  0  0  0  0  0  0  0  0  0  0
  181.7540   20.0400   46.1440 N   0  0  0  0  0  0  0  0  0  0  0  0
  180.5190   19.6730   45.7580 C   0  0  0  0  0  0  0  0  0  0  0  0
  180.4820   18.9390   44.5510 N   0  0  0  0  0  0  0  0  0  0  0  0
  180.6300   17.5330   44.4230 C   0  0  0  0  0  0  0  0  0  0  0  0
  179.8880   16.6180   45.1850 C   0  0  0  0  0  0  0  0  0  0  0  0
  180.1050   15.2430   45.0520 C   0  0  0  0  0  0  0  0  0  0  0  0
  181.0760   14.7720   44.1730 C   0  0  0  0  0  0  0  0  0  0  0  0
  181.8340   15.6770   43.4400 C   0  0  0  0  0  0  0  0  0  0  0  0
  182.7820   15.1750   42.6000 O   0  0  0  0  0  0  0  0  0  0  0  0
  181.6270   17.0480   43.5670 C   0  0  0  0  0  0  0  0  0  0  0  0
  179.3590   20.0120   46.4800 C   0  0  0  0  0  0  0  0  0  0  0  0
  178.0240   19.7140   46.0930 C   0  0  0  0  0  0  0  0  0  0  0  0
  176.9310   20.0690   46.8890 C   0  0  0  0  0  0  0  0  0  0  0  0
  175.6370   19.7470   46.5830 O   0  0  0  0  0  0  0  0  0  0  0  0
  175.2320   18.3940   46.7690 C   0  0  0  0  0  0  0  0  0  0  0  0
  176.0231   20.6994   50.9613 H   0  0  0  0  0  0  0  0  0  0  0  0
  174.7767   20.0446   49.8457 H   0  0  0  0  0  0  0  0  0  0  0  0
  176.4345   19.3530   49.8457 H   0  0  0  0  0  0  0  0  0  0  0  0
  178.6690   21.6127   49.3841 H   0  0  0  0  0  0  0  0  0  0  0  0
  182.8402   21.0089   47.6290 H   0  0  0  0  0  0  0  0  0  0  0  0
  180.3380   19.4500   43.7220 H   0  0  0  0  0  0  0  0  0  0  0  0
  179.1298   16.9850   45.8924 H   0  0  0  0  0  0  0  0  0  0  0  0
  179.5077   14.5328   45.6427 H   0  0  0  0  0  0  0  0  0  0  0  0
  181.2422   13.6906   44.0593 H   0  0  0  0  0  0  0  0  0  0  0  0
  183.6620   15.4940   42.6420 H   0  0  0  0  0  0  0  0  0  0  0  0
  182.2480   17.7520   42.9937 H   0  0  0  0  0  0  0  0  0  0  0  0
  177.8463   19.1903   45.1421 H   0  0  0  0  0  0  0  0  0  0  0  0
  175.1666   18.1755   47.8451 H   0  0  0  0  0  0  0  0  0  0  0  0
  174.2479   18.2384   46.3028 H   0  0  0  0  0  0  0  0  0  0  0  0
  175.9688   17.7233   46.3028 H   0  0  0  0  0  0  0  0  0  0  0  0
  1  2  1  0
  2  3  1  0
  3  4  2  0
  4  5  1  0
  5  6  2  0
  6  7  1  0
  7  8  2  0
  8  9  1  0
  9 10  1  0
 10 11  1  0
 11 12  2  0
 12 13  1  0
 13 14  2  0
 14 15  1  0
 15 16  1  0
 15 17  2  0
  9 18  2  0
 18 19  1  0
 19 20  2  0
 20 21  1  0
 21 22  1  0
 20  3  1  0
 18  5  1  0
 17 11  1  0
  1 23  1  0
  1 24  1  0
  1 25  1  0
  4 26  1  0
  7 27  1  0
 10 28  1  0
 12 29  1  0
 13 30  1  0
 14 31  1  0
 16 32  1  0
 17 33  1  0
 19 34  1  0
 22 35  1  0
 22 36  1  0
 22 37  1  0
M  END
>  <meeko>  (1) 
{"is_sidechain": [false], "free_energy": -7.66, "intermolecular_energy": -9.675, "internal_energy": -0.685}

$$$$
DTQ_out
     RDKit          3D

 37 39  0  0  0  0  0  0  0  0999 V2000
  177.6940   23.6730   47.7010 C   0  0  0  0  0  0  0  0  0  0  0  0
  176.9350   22.4910   47.4700 O   0  0  0  0  0  0  0  0  0  0  0  0
  177.6370   21.4040   47.0130 C   0  0  0  0  0  0  0  0  0  0  0  0
  178.9800   21.6850   46.7260 C   0  0  0  0  0  0  0  0  0  0  0  0
  179.8600   20.7200   46.2630 C   0  0  0  0  0  0  0  0  0  0  0  0
  181.1190   21.0780   45.9840 N   0  0  0  0  0  0  0  0  0  0  0  0
  181.9290   20.1240   45.5140 C   0  0  0  0  0  0  0  0  0  0  0  0
  181.6080   18.8430   45.3160 N   0  0  0  0  0  0  0  0  0  0  0  0
  180.3500   18.4930   45.6350 C   0  0  0  0  0  0  0  0  0  0  0  0
  180.0610   17.1230   45.4390 N   0  0  0  0  0  0  0  0  0  0  0  0
  180.4050   16.3510   44.2980 C   0  0  0  0  0  0  0  0  0  0  0  0
  180.4120   14.9480   44.3020 C   0  0  0  0  0  0  0  0  0  0  0  0
  180.8020   14.2370   43.1650 C   0  0  0  0  0  0  0  0  0  0  0  0
  181.2080   14.9180   42.0200 C   0  0  0  0  0  0  0  0  0  0  0  0
  181.2320   16.3070   42.0230 C   0  0  0  0  0  0  0  0  0  0  0  0
  181.6480   16.9360   40.8870 O   0  0  0  0  0  0  0  0  0  0  0  0
  180.8470   17.0260   43.1520 C   0  0  0  0  0  0  0  0  0  0  0  0
  179.3920   19.4140   46.0990 C   0  0  0  0  0  0  0  0  0  0  0  0
  178.0310   19.1220   46.3890 C   0  0  0  0  0  0  0  0  0  0  0  0
  177.1560   20.0990   46.8720 C   0  0  0  0  0  0  0  0  0  0  0  0
  175.8570   19.8450   47.2200 O   0  0  0  0  0  0  0  0  0  0  0  0
  175.6170   19.2900   48.5090 C   0  0  0  0  0  0  0  0  0  0  0  0
  177.7986   23.8358   48.7838 H   0  0  0  0  0  0  0  0  0  0  0  0
  178.6907   23.5630   47.2488 H   0  0  0  0  0  0  0  0  0  0  0  0
  177.1792   24.5335   47.2488 H   0  0  0  0  0  0  0  0  0  0  0  0
  179.3493   22.7105   46.8740 H   0  0  0  0  0  0  0  0  0  0  0  0
  182.9584   20.4228   45.2667 H   0  0  0  0  0  0  0  0  0  0  0  0
  179.5770   16.6610   46.1610 H   0  0  0  0  0  0  0  0  0  0  0  0
  180.1078   14.4036   45.2081 H   0  0  0  0  0  0  0  0  0  0  0  0
  180.7885   13.1371   43.1738 H   0  0  0  0  0  0  0  0  0  0  0  0
  181.5073   14.3604   41.1203 H   0  0  0  0  0  0  0  0  0  0  0  0
  182.4810   17.3640   40.8660 H   0  0  0  0  0  0  0  0  0  0  0  0
  180.8899   18.1251   43.1442 H   0  0  0  0  0  0  0  0  0  0  0  0
  177.6568   18.1001   46.2290 H   0  0  0  0  0  0  0  0  0  0  0  0
  175.9279   20.0089   49.2814 H   0  0  0  0  0  0  0  0  0  0  0  0
  174.5445   19.0726   48.6207 H   0  0  0  0  0  0  0  0  0  0  0  0
  176.1932   18.3597   48.6207 H   0  0  0  0  0  0  0  0  0  0  0  0
  1  2  1  0
  2  3  1  0
  3  4  2  0
  4  5  1  0
  5  6  2  0
  6  7  1  0
  7  8  2  0
  8  9  1  0
  9 10  1  0
 10 11  1  0
 11 12  2  0
 12 13  1  0
 13 14  2  0
 14 15  1  0
 15 16  1  0
 15 17  2  0
  9 18  2  0
 18 19  1  0
 19 20  2  0
 20 21  1  0
 21 22  1  0
 20  3  1  0
 18  5  1  0
 17 11  1  0
  1 23  1  0
  1 24  1  0
  1 25  1  0
  4 26  1  0
  7 27  1  0
 10 28  1  0
 12 29  1  0
 13 30  1  0
 14 31  1  0
 16 32  1  0
 17 33  1  0
 19 34  1  0
 22 35  1  0
 22 36  1  0
 22 37  1  0
M  END
>  <meeko>  (2) 
{"is_sidechain": [false], "free_energy": -7.504, "intermolecular_energy": -10.073, "internal_energy": -0.091}

$$$$
DTQ_out
     RDKit          3D

 37 39  0  0  0  0  0  0  0  0999 V2000
  178.2860   23.7210   48.4350 C   0  0  0  0  0  0  0  0  0  0  0  0
  179.6310   23.3360   48.1700 O   0  0  0  0  0  0  0  0  0  0  0  0
  179.8020   22.1020   47.5960 C   0  0  0  0  0  0  0  0  0  0  0  0
  178.6010   21.4100   47.3870 C   0  0  0  0  0  0  0  0  0  0  0  0
  178.5580   20.1510   46.8090 C   0  0  0  0  0  0  0  0  0  0  0  0
  177.3720   19.5460   46.6730 N   0  0  0  0  0  0  0  0  0  0  0  0
  177.3750   18.3220   46.1350 C   0  0  0  0  0  0  0  0  0  0  0  0
  178.4470   17.6530   45.7020 N   0  0  0  0  0  0  0  0  0  0  0  0
  179.6260   18.2900   45.8140 C   0  0  0  0  0  0  0  0  0  0  0  0
  180.7300   17.5600   45.3160 N   0  0  0  0  0  0  0  0  0  0  0  0
  180.6930   16.5980   44.2720 C   0  0  0  0  0  0  0  0  0  0  0  0
  180.3660   15.2520   44.4890 C   0  0  0  0  0  0  0  0  0  0  0  0
  180.3880   14.3370   43.4330 C   0  0  0  0  0  0  0  0  0  0  0  0
  180.7560   14.7530   42.1560 C   0  0  0  0  0  0  0  0  0  0  0  0
  181.1110   16.0790   41.9440 C   0  0  0  0  0  0  0  0  0  0  0  0
  181.4770   16.4440   40.6820 O   0  0  0  0  0  0  0  0  0  0  0  0
  181.0950   16.9990   42.9900 C   0  0  0  0  0  0  0  0  0  0  0  0
  179.7570   19.5630   46.4000 C   0  0  0  0  0  0  0  0  0  0  0  0
  180.9790   20.2600   46.6080 C   0  0  0  0  0  0  0  0  0  0  0  0
  181.0100   21.5360   47.1770 C   0  0  0  0  0  0  0  0  0  0  0  0
  182.1570   22.2640   47.3380 O   0  0  0  0  0  0  0  0  0  0  0  0
  183.1030   22.2490   46.2730 C   0  0  0  0  0  0  0  0  0  0  0  0
  178.1252   23.7670   49.5222 H   0  0  0  0  0  0  0  0  0  0  0  0
  178.0940   24.7102   47.9938 H   0  0  0  0  0  0  0  0  0  0  0  0
  177.5997   22.9832   47.9938 H   0  0  0  0  0  0  0  0  0  0  0  0
  177.6569   21.8841   47.6933 H   0  0  0  0  0  0  0  0  0  0  0  0
  176.4020   17.8179   46.0399 H   0  0  0  0  0  0  0  0  0  0  0  0
  181.6050   17.7350   45.7310 H   0  0  0  0  0  0  0  0  0  0  0  0
  180.0899   14.9135   45.4986 H   0  0  0  0  0  0  0  0  0  0  0  0
  180.1142   13.2866   43.6108 H   0  0  0  0  0  0  0  0  0  0  0  0
  180.7655   14.0367   41.3212 H   0  0  0  0  0  0  0  0  0  0  0  0
  182.2700   16.1100   40.3100 H   0  0  0  0  0  0  0  0  0  0  0  0
  181.3980   18.0410   42.8100 H   0  0  0  0  0  0  0  0  0  0  0  0
  181.9249   19.7821   46.3132 H   0  0  0  0  0  0  0  0  0  0  0  0
  184.1217   22.2328   46.6877 H   0  0  0  0  0  0  0  0  0  0  0  0
  182.9446   21.3533   45.6545 H   0  0  0  0  0  0  0  0  0  0  0  0
  182.9731   23.1493   45.6545 H   0  0  0  0  0  0  0  0  0  0  0  0
  1  2  1  0
  2  3  1  0
  3  4  2  0
  4  5  1  0
  5  6  2  0
  6  7  1  0
  7  8  2  0
  8  9  1  0
  9 10  1  0
 10 11  1  0
 11 12  2  0
 12 13  1  0
 13 14  2  0
 14 15  1  0
 15 16  1  0
 15 17  2  0
  9 18  2  0
 18 19  1  0
 19 20  2  0
 20 21  1  0
 21 22  1  0
 20  3  1  0
 18  5  1  0
 17 11  1  0
  1 23  1  0
  1 24  1  0
  1 25  1  0
  4 26  1  0
  7 27  1  0
 10 28  1  0
 12 29  1  0
 13 30  1  0
 14 31  1  0
 16 32  1  0
 17 33  1  0
 19 34  1  0
 22 35  1  0
 22 36  1  0
 22 37  1  0
M  END
>  <meeko>  (3) 
{"is_sidechain": [false], "free_energy": -6.166, "intermolecular_energy": -8.081, "internal_energy": -0.392}

$$$$
DTQ_out
     RDKit          3D

 37 39  0  0  0  0  0  0  0  0999 V2000
  175.6470   20.9320   46.9520 C   0  0  0  0  0  0  0  0  0  0  0  0
  176.5490   20.6390   48.0130 O   0  0  0  0  0  0  0  0  0  0  0  0
  177.8800   20.8380   47.7450 C   0  0  0  0  0  0  0  0  0  0  0  0
  178.3850   19.9830   46.7550 C   0  0  0  0  0  0  0  0  0  0  0  0
  179.7040   20.0320   46.3310 C   0  0  0  0  0  0  0  0  0  0  0  0
  180.1140   19.1610   45.4020 N   0  0  0  0  0  0  0  0  0  0  0  0
  181.3990   19.2220   45.0410 C   0  0  0  0  0  0  0  0  0  0  0  0
  182.3090   20.0840   45.5030 N   0  0  0  0  0  0  0  0  0  0  0  0
  181.8720   20.9750   46.4100 C   0  0  0  0  0  0  0  0  0  0  0  0
  182.8580   21.8870   46.8510 N   0  0  0  0  0  0  0  0  0  0  0  0
  183.7050   22.6670   46.0200 C   0  0  0  0  0  0  0  0  0  0  0  0
  184.0720   22.2740   44.7240 C   0  0  0  0  0  0  0  0  0  0  0  0
  184.9450   23.0570   43.9650 C   0  0  0  0  0  0  0  0  0  0  0  0
  185.4750   24.2290   44.4980 C   0  0  0  0  0  0  0  0  0  0  0  0
  185.1380   24.6050   45.7930 C   0  0  0  0  0  0  0  0  0  0  0  0
  185.6880   25.7520   46.2820 O   0  0  0  0  0  0  0  0  0  0  0  0
  184.2710   23.8300   46.5590 C   0  0  0  0  0  0  0  0  0  0  0  0
  180.5520   20.9850   46.9010 C   0  0  0  0  0  0  0  0  0  0  0  0
  180.0460   21.8540   47.9060 C   0  0  0  0  0  0  0  0  0  0  0  0
  178.7100   21.8090   48.3130 C   0  0  0  0  0  0  0  0  0  0  0  0
  178.1700   22.6670   49.2310 O   0  0  0  0  0  0  0  0  0  0  0  0
  177.5330   23.8420   48.7390 C   0  0  0  0  0  0  0  0  0  0  0  0
  174.6792   21.2464   47.3698 H   0  0  0  0  0  0  0  0  0  0  0  0
  176.0598   21.7423   46.3330 H   0  0  0  0  0  0  0  0  0  0  0  0
  175.5048   20.0338   46.3330 H   0  0  0  0  0  0  0  0  0  0  0  0
  177.7091   19.2455   46.2975 H   0  0  0  0  0  0  0  0  0  0  0  0
  181.7403   18.4926   44.2916 H   0  0  0  0  0  0  0  0  0  0  0  0
  182.9670   21.9920   47.8230 H   0  0  0  0  0  0  0  0  0  0  0  0
  183.6689   21.3415   44.3021 H   0  0  0  0  0  0  0  0  0  0  0  0
  185.2142   22.7471   42.9445 H   0  0  0  0  0  0  0  0  0  0  0  0
  186.1551   24.8524   43.8990 H   0  0  0  0  0  0  0  0  0  0  0  0
  185.8460   26.4770   45.7100 H   0  0  0  0  0  0  0  0  0  0  0  0
  184.0300   24.1313   47.5891 H   0  0  0  0  0  0  0  0  0  0  0  0
  180.7244   22.5813   48.3758 H   0  0  0  0  0  0  0  0  0  0  0  0
  177.1983   24.4595   49.5856 H   0  0  0  0  0  0  0  0  0  0  0  0
  178.2440   24.4151   48.1257 H   0  0  0  0  0  0  0  0  0  0  0  0
  176.6648   23.5590   48.1257 H   0  0  0  0  0  0  0  0  0  0  0  0
  1  2  1  0
  2  3  1  0
  3  4  2  0
  4  5  1  0
  5  6  2  0
  6  7  1  0
  7  8  2  0
  8  9  1  0
  9 10  1  0
 10 11  1  0
 11 12  2  0
 12 13  1  0
 13 14  2  0
 14 15  1  0
 15 16  1  0
 15 17  2  0
  9 18  2  0
 18 19  1  0
 19 20  2  0
 20 21  1  0
 21 22  1  0
 20  3  1  0
 18  5  1  0
 17 11  1  0
  1 23  1  0
  1 24  1  0
  1 25  1  0
  4 26  1  0
  7 27  1  0
 10 28  1  0
 12 29  1  0
 13 30  1  0
 14 31  1  0
 16 32  1  0
 17 33  1  0
 19 34  1  0
 22 35  1  0
 22 36  1  0
 22 37  1  0
M  END
>  <meeko>  (4) 
{"is_sidechain": [false], "free_energy": -6.098, "intermolecular_energy": -8.333, "internal_energy": -0.054}

$$$$
DTQ_out
     RDKit          3D

 37 39  0  0  0  0  0  0  0  0999 V2000
  174.0650   24.5550   49.7010 C   0  0  0  0  0  0  0  0  0  0  0  0
  174.9490   23.5490   50.1820 O   0  0  0  0  0  0  0  0  0  0  0  0
  175.5880   22.8010   49.2260 C   0  0  0  0  0  0  0  0  0  0  0  0
  174.9710   21.5670   48.9760 C   0  0  0  0  0  0  0  0  0  0  0  0
  175.4550   20.6680   48.0370 C   0  0  0  0  0  0  0  0  0  0  0  0
  174.8240   19.4990   47.8820 N   0  0  0  0  0  0  0  0  0  0  0  0
  175.3380   18.6490   46.9870 C   0  0  0  0  0  0  0  0  0  0  0  0
  176.4090   18.8640   46.2180 N   0  0  0  0  0  0  0  0  0  0  0  0
  177.0100   20.0580   46.3630 C   0  0  0  0  0  0  0  0  0  0  0  0
  178.1200   20.2570   45.5100 N   0  0  0  0  0  0  0  0  0  0  0  0
  179.4850   20.2550   45.9020 C   0  0  0  0  0  0  0  0  0  0  0  0
  180.5370   20.0700   44.9930 C   0  0  0  0  0  0  0  0  0  0  0  0
  181.8620   20.0320   45.4370 C   0  0  0  0  0  0  0  0  0  0  0  0
  182.1460   20.1580   46.7940 C   0  0  0  0  0  0  0  0  0  0  0  0
  181.1050   20.3090   47.7010 C   0  0  0  0  0  0  0  0  0  0  0  0
  181.4250   20.4170   49.0220 O   0  0  0  0  0  0  0  0  0  0  0  0
  179.7810   20.3470   47.2690 C   0  0  0  0  0  0  0  0  0  0  0  0
  176.5890   21.0200   47.3010 C   0  0  0  0  0  0  0  0  0  0  0  0
  177.2190   22.2700   47.5490 C   0  0  0  0  0  0  0  0  0  0  0  0
  176.7130   23.1760   48.4850 C   0  0  0  0  0  0  0  0  0  0  0  0
  177.2540   24.4130   48.7100 O   0  0  0  0  0  0  0  0  0  0  0  0
  178.6680   24.4970   48.8530 C   0  0  0  0  0  0  0  0  0  0  0  0
  173.6058   25.0776   50.5531 H   0  0  0  0  0  0  0  0  0  0  0  0
  174.6276   25.2754   49.0890 H   0  0  0  0  0  0  0  0  0  0  0  0
  173.2782   24.0897   49.0890 H   0  0  0  0  0  0  0  0  0  0  0  0
  174.0686   21.3016   49.5463 H   0  0  0  0  0  0  0  0  0  0  0  0
  174.8304   17.6798   46.8730 H   0  0  0  0  0  0  0  0  0  0  0  0
  177.9300   20.4100   44.5570 H   0  0  0  0  0  0  0  0  0  0  0  0
  180.3175   19.9538   43.9214 H   0  0  0  0  0  0  0  0  0  0  0  0
  182.6806   19.9025   44.7138 H   0  0  0  0  0  0  0  0  0  0  0  0
  183.1881   20.1381   47.1456 H   0  0  0  0  0  0  0  0  0  0  0  0
  181.6350   21.2540   49.3860 H   0  0  0  0  0  0  0  0  0  0  0  0
  178.9669   20.4493   48.0016 H   0  0  0  0  0  0  0  0  0  0  0  0
  178.1292   22.5311   46.9891 H   0  0  0  0  0  0  0  0  0  0  0  0
  178.9282   24.5125   49.9217 H   0  0  0  0  0  0  0  0  0  0  0  0
  179.1374   23.6252   48.3739 H   0  0  0  0  0  0  0  0  0  0  0  0
  179.0309   25.4183   48.3739 H   0  0  0  0  0  0  0  0  0  0  0  0
  1  2  1  0
  2  3  1  0
  3  4  2  0
  4  5  1  0
  5  6  2  0
  6  7  1  0
  7  8  2  0
  8  9  1  0
  9 10  1  0
 10 11  1  0
 11 12  2  0
 12 13  1  0
 13 14  2  0
 14 15  1  0
 15 16  1  0
 15 17  2  0
  9 18  2  0
 18 19  1  0
 19 20  2  0
 20 21  1  0
 21 22  1  0
 20  3  1  0
 18  5  1  0
 17 11  1  0
  1 23  1  0
  1 24  1  0
  1 25  1  0
  4 26  1  0
  7 27  1  0
 10 28  1  0
 12 29  1  0
 13 30  1  0
 14 31  1  0
 16 32  1  0
 17 33  1  0
 19 34  1  0
 22 35  1  0
 22 36  1  0
 22 37  1  0
M  END
>  <meeko>  (5) 
{"is_sidechain": [false], "free_energy": -6.09, "intermolecular_energy": -8.385, "internal_energy": 0.008}

$$$$
DTQ_out
     RDKit          3D

 37 39  0  0  0  0  0  0  0  0999 V2000
  183.5550   22.5790   46.1600 C   0  0  0  0  0  0  0  0  0  0  0  0
  182.6650   22.4490   47.2630 O   0  0  0  0  0  0  0  0  0  0  0  0
  181.6030   21.5980   47.0840 C   0  0  0  0  0  0  0  0  0  0  0  0
  181.9050   20.4890   46.2810 C   0  0  0  0  0  0  0  0  0  0  0  0
  180.9720   19.5060   45.9880 C   0  0  0  0  0  0  0  0  0  0  0  0
  181.3320   18.4950   45.1890 N   0  0  0  0  0  0  0  0  0  0  0  0
  180.3960   17.5820   44.9090 C   0  0  0  0  0  0  0  0  0  0  0  0
  179.1420   17.5720   45.3670 N   0  0  0  0  0  0  0  0  0  0  0  0
  178.8070   18.5770   46.1960 C   0  0  0  0  0  0  0  0  0  0  0  0
  177.4810   18.5120   46.6810 N   0  0  0  0  0  0  0  0  0  0  0  0
  176.7170   19.6030   47.1750 C   0  0  0  0  0  0  0  0  0  0  0  0
  176.4620   20.7560   46.4190 C   0  0  0  0  0  0  0  0  0  0  0  0
  175.7420   21.8210   46.9690 C   0  0  0  0  0  0  0  0  0  0  0  0
  175.2880   21.7510   48.2830 C   0  0  0  0  0  0  0  0  0  0  0  0
  175.5660   20.6230   49.0440 C   0  0  0  0  0  0  0  0  0  0  0  0
  175.1140   20.5990   50.3300 O   0  0  0  0  0  0  0  0  0  0  0  0
  176.2840   19.5570   48.5070 C   0  0  0  0  0  0  0  0  0  0  0  0
  179.6910   19.6190   46.5340 C   0  0  0  0  0  0  0  0  0  0  0  0
  179.3790   20.7410   47.3490 C   0  0  0  0  0  0  0  0  0  0  0  0
  180.3320   21.7180   47.6520 C   0  0  0  0  0  0  0  0  0  0  0  0
  180.0890   22.7790   48.4810 O   0  0  0  0  0  0  0  0  0  0  0  0
  178.7590   23.2830   48.5340 C   0  0  0  0  0  0  0  0  0  0  0  0
  184.5796   22.7287   46.5312 H   0  0  0  0  0  0  0  0  0  0  0  0
  183.5164   21.6657   45.5481 H   0  0  0  0  0  0  0  0  0  0  0  0
  183.2568   23.4431   45.5481 H   0  0  0  0  0  0  0  0  0  0  0  0
  182.9202   20.3953   45.8680 H   0  0  0  0  0  0  0  0  0  0  0  0
  180.6870   16.7609   44.2373 H   0  0  0  0  0  0  0  0  0  0  0  0
  177.0460   17.6290   46.6760 H   0  0  0  0  0  0  0  0  0  0  0  0
  176.8313   20.8233   45.3850 H   0  0  0  0  0  0  0  0  0  0  0  0
  175.5342   22.7150   46.3627 H   0  0  0  0  0  0  0  0  0  0  0  0
  174.7131   22.5831   48.7155 H   0  0  0  0  0  0  0  0  0  0  0  0
  175.7190   20.4910   51.0380 H   0  0  0  0  0  0  0  0  0  0  0  0
  176.5113   18.6786   49.1288 H   0  0  0  0  0  0  0  0  0  0  0  0
  178.3606   20.8433   47.7520 H   0  0  0  0  0  0  0  0  0  0  0  0
  178.4525   23.3992   49.5840 H   0  0  0  0  0  0  0  0  0  0  0  0
  178.7166   24.2595   48.0295 H   0  0  0  0  0  0  0  0  0  0  0  0
  178.0800   22.5798   48.0295 H   0  0  0  0  0  0  0  0  0  0  0  0
  1  2  1  0
  2  3  1  0
  3  4  2  0
  4  5  1  0
  5  6  2  0
  6  7  1  0
  7  8  2  0
  8  9  1  0
  9 10  1  0
 10 11  1  0
 11 12  2  0
 12 13  1  0
 13 14  2  0
 14 15  1  0
 15 16  1  0
 15 17  2  0
  9 18  2  0
 18 19  1  0
 19 20  2  0
 20 21  1  0
 21 22  1  0
 20  3  1  0
 18  5  1  0
 17 11  1  0
  1 23  1  0
  1 24  1  0
  1 25  1  0
  4 26  1  0
  7 27  1  0
 10 28  1  0
 12 29  1  0
 13 30  1  0
 14 31  1  0
 16 32  1  0
 17 33  1  0
 19 34  1  0
 22 35  1  0
 22 36  1  0
 22 37  1  0
M  END
>  <meeko>  (6) 
{"is_sidechain": [false], "free_energy": -5.927, "intermolecular_energy": -8.522, "internal_energy": 0.351}

$$$$
DTQ_out
     RDKit          3D

 37 39  0  0  0  0  0  0  0  0999 V2000
  180.8300   17.0050   42.1470 C   0  0  0  0  0  0  0  0  0  0  0  0
  181.5600   16.8810   43.3630 O   0  0  0  0  0  0  0  0  0  0  0  0
  181.1390   17.6720   44.4020 C   0  0  0  0  0  0  0  0  0  0  0  0
  181.8580   18.8700   44.5210 C   0  0  0  0  0  0  0  0  0  0  0  0
  181.5810   19.8110   45.5000 C   0  0  0  0  0  0  0  0  0  0  0  0
  182.3350   20.9150   45.5630 N   0  0  0  0  0  0  0  0  0  0  0  0
  182.0530   21.7850   46.5380 C   0  0  0  0  0  0  0  0  0  0  0  0
  181.0770   21.6680   47.4420 N   0  0  0  0  0  0  0  0  0  0  0  0
  180.3070   20.5700   47.3430 C   0  0  0  0  0  0  0  0  0  0  0  0
  179.2680   20.5000   48.2990 N   0  0  0  0  0  0  0  0  0  0  0  0
  177.8890   20.7390   48.0540 C   0  0  0  0  0  0  0  0  0  0  0  0
  177.3700   20.9450   46.7680 C   0  0  0  0  0  0  0  0  0  0  0  0
  176.0120   21.2210   46.5860 C   0  0  0  0  0  0  0  0  0  0  0  0
  175.1650   21.3130   47.6870 C   0  0  0  0  0  0  0  0  0  0  0  0
  175.6830   21.1410   48.9650 C   0  0  0  0  0  0  0  0  0  0  0  0
  174.8230   21.2510   50.0170 O   0  0  0  0  0  0  0  0  0  0  0  0
  177.0350   20.8680   49.1570 C   0  0  0  0  0  0  0  0  0  0  0  0
  180.5290   19.5620   46.3850 C   0  0  0  0  0  0  0  0  0  0  0  0
  179.7960   18.3500   46.2700 C   0  0  0  0  0  0  0  0  0  0  0  0
  180.0720   17.4150   45.2680 C   0  0  0  0  0  0  0  0  0  0  0  0
  179.3510   16.2670   45.0860 O   0  0  0  0  0  0  0  0  0  0  0  0
  180.0190   15.0280   45.3050 C   0  0  0  0  0  0  0  0  0  0  0  0
  179.7687   17.1853   42.3732 H   0  0  0  0  0  0  0  0  0  0  0  0
  181.2290   17.8482   41.5641 H   0  0  0  0  0  0  0  0  0  0  0  0
  180.9282   16.0773   41.5641 H   0  0  0  0  0  0  0  0  0  0  0  0
  182.6731   19.0706   43.8101 H   0  0  0  0  0  0  0  0  0  0  0  0
  182.6852   22.6829   46.6018 H   0  0  0  0  0  0  0  0  0  0  0  0
  179.5230   20.2630   49.2190 H   0  0  0  0  0  0  0  0  0  0  0  0
  178.0370   20.8889   45.8951 H   0  0  0  0  0  0  0  0  0  0  0  0
  175.6120   21.3657   45.5716 H   0  0  0  0  0  0  0  0  0  0  0  0
  174.0939   21.5203   47.5464 H   0  0  0  0  0  0  0  0  0  0  0  0
  175.0460   20.8760   50.8460 H   0  0  0  0  0  0  0  0  0  0  0  0
  177.4329   20.7535   50.1761 H   0  0  0  0  0  0  0  0  0  0  0  0
  178.9897   18.1419   46.9888 H   0  0  0  0  0  0  0  0  0  0  0  0
  180.1153   14.8494   46.3861 H   0  0  0  0  0  0  0  0  0  0  0  0
  179.4382   14.2127   44.8490 H   0  0  0  0  0  0  0  0  0  0  0  0
  181.0193   15.0651   44.8490 H   0  0  0  0  0  0  0  0  0  0  0  0
  1  2  1  0
  2  3  1  0
  3  4  2  0
  4  5  1  0
  5  6  2  0
  6  7  1  0
  7  8  2  0
  8  9  1  0
  9 10  1  0
 10 11  1  0
 11 12  2  0
 12 13  1  0
 13 14  2  0
 14 15  1  0
 15 16  1  0
 15 17  2  0
  9 18  2  0
 18 19  1  0
 19 20  2  0
 20 21  1  0
 21 22  1  0
 20  3  1  0
 18  5  1  0
 17 11  1  0
  1 23  1  0
  1 24  1  0
  1 25  1  0
  4 26  1  0
  7 27  1  0
 10 28  1  0
 12 29  1  0
 13 30  1  0
 14 31  1  0
 16 32  1  0
 17 33  1  0
 19 34  1  0
 22 35  1  0
 22 36  1  0
 22 37  1  0
M  END
>  <meeko>  (7) 
{"is_sidechain": [false], "free_energy": -5.78, "intermolecular_energy": -7.701, "internal_energy": -0.285}

$$$$
DTQ_out
     RDKit          3D

 37 39  0  0  0  0  0  0  0  0999 V2000
  174.9930   24.0020   49.1580 C   0  0  0  0  0  0  0  0  0  0  0  0
  175.4100   22.8040   49.8050 O   0  0  0  0  0  0  0  0  0  0  0  0
  176.1860   21.9550   49.0570 C   0  0  0  0  0  0  0  0  0  0  0  0
  175.4510   20.9540   48.4050 C   0  0  0  0  0  0  0  0  0  0  0  0
  176.0470   20.0020   47.5930 C   0  0  0  0  0  0  0  0  0  0  0  0
  175.2780   19.0630   47.0310 N   0  0  0  0  0  0  0  0  0  0  0  0
  175.8940   18.1470   46.2770 C   0  0  0  0  0  0  0  0  0  0  0  0
  177.2020   18.0930   46.0130 N   0  0  0  0  0  0  0  0  0  0  0  0
  177.9560   19.0650   46.5560 C   0  0  0  0  0  0  0  0  0  0  0  0
  179.3280   18.9880   46.2270 N   0  0  0  0  0  0  0  0  0  0  0  0
  179.9390   17.9970   45.4140 C   0  0  0  0  0  0  0  0  0  0  0  0
  180.8380   18.3060   44.3830 C   0  0  0  0  0  0  0  0  0  0  0  0
  181.3760   17.2950   43.5820 C   0  0  0  0  0  0  0  0  0  0  0  0
  181.0060   15.9690   43.7910 C   0  0  0  0  0  0  0  0  0  0  0  0
  180.0920   15.6630   44.7910 C   0  0  0  0  0  0  0  0  0  0  0  0
  179.7470   14.3530   44.9550 O   0  0  0  0  0  0  0  0  0  0  0  0
  179.5480   16.6630   45.5930 C   0  0  0  0  0  0  0  0  0  0  0  0
  177.4300   20.0600   47.4020 C   0  0  0  0  0  0  0  0  0  0  0  0
  178.1810   21.0730   48.0600 C   0  0  0  0  0  0  0  0  0  0  0  0
  177.5680   22.0380   48.8630 C   0  0  0  0  0  0  0  0  0  0  0  0
  178.2460   23.0640   49.4630 O   0  0  0  0  0  0  0  0  0  0  0  0
  178.5920   24.1860   48.6570 C   0  0  0  0  0  0  0  0  0  0  0  0
  174.7307   24.7555   49.9153 H   0  0  0  0  0  0  0  0  0  0  0  0
  175.8113   24.3832   48.5295 H   0  0  0  0  0  0  0  0  0  0  0  0
  174.1148   23.7927   48.5295 H   0  0  0  0  0  0  0  0  0  0  0  0
  174.3602   20.9234   48.5434 H   0  0  0  0  0  0  0  0  0  0  0  0
  175.2636   17.3632   45.8317 H   0  0  0  0  0  0  0  0  0  0  0  0
  179.9160   19.6870   46.5950 H   0  0  0  0  0  0  0  0  0  0  0  0
  181.1222   19.3533   44.2032 H   0  0  0  0  0  0  0  0  0  0  0  0
  182.0922   17.5469   42.7860 H   0  0  0  0  0  0  0  0  0  0  0  0
  181.4345   15.1696   43.1686 H   0  0  0  0  0  0  0  0  0  0  0  0
  180.2370   13.6830   44.5220 H   0  0  0  0  0  0  0  0  0  0  0  0
  178.8107   16.4057   46.3677 H   0  0  0  0  0  0  0  0  0  0  0  0
  179.2734   21.0972   47.9333 H   0  0  0  0  0  0  0  0  0  0  0  0
  178.8540   25.0357   49.3045 H   0  0  0  0  0  0  0  0  0  0  0  0
  179.4529   23.9298   48.0220 H   0  0  0  0  0  0  0  0  0  0  0  0
  177.7363   24.4591   48.0220 H   0  0  0  0  0  0  0  0  0  0  0  0
  1  2  1  0
  2  3  1  0
  3  4  2  0
  4  5  1  0
  5  6  2  0
  6  7  1  0
  7  8  2  0
  8  9  1  0
  9 10  1  0
 10 11  1  0
 11 12  2  0
 12 13  1  0
 13 14  2  0
 14 15  1  0
 15 16  1  0
 15 17  2  0
  9 18  2  0
 18 19  1  0
 19 20  2  0
 20 21  1  0
 21 22  1  0
 20  3  1  0
 18  5  1  0
 17 11  1  0
  1 23  1  0
  1 24  1  0
  1 25  1  0
  4 26  1  0
  7 27  1  0
 10 28  1  0
 12 29  1  0
 13 30  1  0
 14 31  1  0
 16 32  1  0
 17 33  1  0
 19 34  1  0
 22 35  1  0
 22 36  1  0
 22 37  1  0
M  END
>  <meeko>  (8) 
{"is_sidechain": [false], "free_energy": -5.709, "intermolecular_energy": -8.079, "internal_energy": 0.183}

$$$$
DTQ_out
     RDKit          3D

 37 39  0  0  0  0  0  0  0  0999 V2000
  184.5540   23.0300   43.7520 C   0  0  0  0  0  0  0  0  0  0  0  0
  184.6340   22.0170   44.7490 O   0  0  0  0  0  0  0  0  0  0  0  0
  183.4980   21.8090   45.4890 C   0  0  0  0  0  0  0  0  0  0  0  0
  182.6830   20.7840   44.9870 C   0  0  0  0  0  0  0  0  0  0  0  0
  181.4950   20.4110   45.5980 C   0  0  0  0  0  0  0  0  0  0  0  0
  180.7610   19.4430   45.0370 N   0  0  0  0  0  0  0  0  0  0  0  0
  179.6100   19.1310   45.6400 C   0  0  0  0  0  0  0  0  0  0  0  0
  179.1320   19.6790   46.7610 N   0  0  0  0  0  0  0  0  0  0  0  0
  179.8990   20.6250   47.3300 C   0  0  0  0  0  0  0  0  0  0  0  0
  179.3720   21.1570   48.5290 N   0  0  0  0  0  0  0  0  0  0  0  0
  178.1310   21.8330   48.6690 C   0  0  0  0  0  0  0  0  0  0  0  0
  177.9370   23.1600   48.2600 C   0  0  0  0  0  0  0  0  0  0  0  0
  176.7070   23.7930   48.4610 C   0  0  0  0  0  0  0  0  0  0  0  0
  175.6670   23.1130   49.0900 C   0  0  0  0  0  0  0  0  0  0  0  0
  175.8660   21.8080   49.5240 C   0  0  0  0  0  0  0  0  0  0  0  0
  174.8270   21.1820   50.1460 O   0  0  0  0  0  0  0  0  0  0  0  0
  177.0890   21.1690   49.3300 C   0  0  0  0  0  0  0  0  0  0  0  0
  181.1120   21.0690   46.7680 C   0  0  0  0  0  0  0  0  0  0  0  0
  181.9340   22.1090   47.2820 C   0  0  0  0  0  0  0  0  0  0  0  0
  183.1380   22.4660   46.6690 C   0  0  0  0  0  0  0  0  0  0  0  0
  183.9860   23.4170   47.1660 O   0  0  0  0  0  0  0  0  0  0  0  0
  184.1110   24.6340   46.4370 C   0  0  0  0  0  0  0  0  0  0  0  0
  184.4762   24.0150   44.2355 H   0  0  0  0  0  0  0  0  0  0  0  0
  185.4573   22.9996   43.1251 H   0  0  0  0  0  0  0  0  0  0  0  0
  183.6666   22.8582   43.1251 H   0  0  0  0  0  0  0  0  0  0  0  0
  182.9977   20.2562   44.0747 H   0  0  0  0  0  0  0  0  0  0  0  0
  178.9976   18.3483   45.1685 H   0  0  0  0  0  0  0  0  0  0  0  0
  179.9150   21.0490   49.3420 H   0  0  0  0  0  0  0  0  0  0  0  0
  178.7596   23.7076   47.7769 H   0  0  0  0  0  0  0  0  0  0  0  0
  176.5604   24.8292   48.1221 H   0  0  0  0  0  0  0  0  0  0  0  0
  174.6952   23.6053   49.2421 H   0  0  0  0  0  0  0  0  0  0  0  0
  174.5820   21.4320   51.0150 H   0  0  0  0  0  0  0  0  0  0  0  0
  177.2366   20.1423   49.6961 H   0  0  0  0  0  0  0  0  0  0  0  0
  181.6137   22.6470   48.1864 H   0  0  0  0  0  0  0  0  0  0  0  0
  184.1974   25.4754   47.1402 H   0  0  0  0  0  0  0  0  0  0  0  0
  185.0095   24.5915   45.8038 H   0  0  0  0  0  0  0  0  0  0  0  0
  183.2226   24.7751   45.8038 H   0  0  0  0  0  0  0  0  0  0  0  0
  1  2  1  0
  2  3  1  0
  3  4  2  0
  4  5  1  0
  5  6  2  0
  6  7  1  0
  7  8  2  0
  8  9  1  0
  9 10  1  0
 10 11  1  0
 11 12  2  0
 12 13  1  0
 13 14  2  0
 14 15  1  0
 15 16  1  0
 15 17  2  0
  9 18  2  0
 18 19  1  0
 19 20  2  0
 20 21  1  0
 21 22  1  0
 20  3  1  0
 18  5  1  0
 17 11  1  0
  1 23  1  0
  1 24  1  0
  1 25  1  0
  4 26  1  0
  7 27  1  0
 10 28  1  0
 12 29  1  0
 13 30  1  0
 14 31  1  0
 16 32  1  0
 17 33  1  0
 19 34  1  0
 22 35  1  0
 22 36  1  0
 22 37  1  0
M  END
>  <meeko>  (9) 
{"is_sidechain": [false], "free_energy": -5.083, "intermolecular_energy": -7.012, "internal_energy": -0.093}

$$$$
