harmine_out
     RDKit          3D

 28 30  0  0  0  0  0  0  0  0999 V2000
  183.4290   22.2430   45.7870 C   0  0  0  0  0  0  0  0  0  0  0  0
  182.6170   22.0720   46.9420 O   0  0  0  0  0  0  0  0  0  0  0  0
  181.4350   21.3990   46.7760 C   0  0  0  0  0  0  0  0  0  0  0  0
  181.1640   20.4600   45.7820 C   0  0  0  0  0  0  0  0  0  0  0  0
  179.9120   19.8320   45.7080 C   0  0  0  0  0  0  0  0  0  0  0  0
  178.9130   20.1520   46.6490 C   0  0  0  0  0  0  0  0  0  0  0  0
  179.2090   21.0920   47.6330 C   0  0  0  0  0  0  0  0  0  0  0  0
  180.4530   21.7280   47.7200 C   0  0  0  0  0  0  0  0  0  0  0  0
  178.0870   21.2250   48.4150 N   0  0  0  0  0  0  0  0  0  0  0  0
  177.0750   20.4030   47.9740 C   0  0  0  0  0  0  0  0  0  0  0  0
  175.7780   20.2170   48.4630 C   0  0  0  0  0  0  0  0  0  0  0  0
  175.2130   20.9330   49.6490 C   0  0  0  0  0  0  0  0  0  0  0  0
  174.9790   19.3250   47.8180 N   0  0  0  0  0  0  0  0  0  0  0  0
  175.4510   18.6570   46.7430 C   0  0  0  0  0  0  0  0  0  0  0  0
  176.7230   18.8030   46.2170 C   0  0  0  0  0  0  0  0  0  0  0  0
  177.5670   19.7160   46.8640 C   0  0  0  0  0  0  0  0  0  0  0  0
  184.4625   22.4607   46.0943 H   0  0  0  0  0  0  0  0  0  0  0  0
  183.4113   21.3214   45.1867 H   0  0  0  0  0  0  0  0  0  0  0  0
  183.0412   23.0792   45.1867 H   0  0  0  0  0  0  0  0  0  0  0  0
  181.9420   20.2083   45.0462 H   0  0  0  0  0  0  0  0  0  0  0  0
  179.7108   19.0928   44.9187 H   0  0  0  0  0  0  0  0  0  0  0  0
  180.6546   22.4672   48.5093 H   0  0  0  0  0  0  0  0  0  0  0  0
  178.0170   21.8290   49.1890 H   0  0  0  0  0  0  0  0  0  0  0  0
  175.5838   20.4631   50.5719 H   0  0  0  0  0  0  0  0  0  0  0  0
  175.5250   21.9875   49.6235 H   0  0  0  0  0  0  0  0  0  0  0  0
  174.1148   20.8748   49.6235 H   0  0  0  0  0  0  0  0  0  0  0  0
  174.7744   17.9442   46.2490 H   0  0  0  0  0  0  0  0  0  0  0  0
  177.0543   18.2322   45.3370 H   0  0  0  0  0  0  0  0  0  0  0  0
  1  2  1  0
  2  3  1  0
  3  4  2  0
  4  5  1  0
  5  6  2  0
  6  7  1  0
  7  8  2  0
  7  9  1  0
  9 10  1  0
 10 11  2  0
 11 12  1  0
 11 13  1  0
 13 14  2  0
 14 15  1  0
 15 16  2  0
  8  3  1  0
 16 10  1  0
 16  6  1  0
  1 17  1  0
  1 18  1  0
  1 19  1  0
  4 20  1  0
  5 21  1  0
  8 22  1  0
  9 23  1  0
 12 24  1  0
 12 25  1  0
 12 26  1  0
 14 27  1  0
 15 28  1  0
M  END
>  <meeko>  (1) 
{"is_sidechain": [false], "free_energy": -7.442, "intermolecular_energy": -7.877, "internal_energy": -0.041}

$$$$
harmine_out
     RDKit          3D

 28 30  0  0  0  0  0  0  0  0999 V2000
  181.2100   17.0320   43.4600 C   0  0  0  0  0  0  0  0  0  0  0  0
  180.8140   17.0860   44.8240 O   0  0  0  0  0  0  0  0  0  0  0  0
  180.4430   18.3090   45.3160 C   0  0  0  0  0  0  0  0  0  0  0  0
  181.2350   19.4560   45.3300 C   0  0  0  0  0  0  0  0  0  0  0  0
  180.7480   20.6600   45.8610 C   0  0  0  0  0  0  0  0  0  0  0  0
  179.4420   20.7140   46.3890 C   0  0  0  0  0  0  0  0  0  0  0  0
  178.6710   19.5550   46.3620 C   0  0  0  0  0  0  0  0  0  0  0  0
  179.1420   18.3460   45.8350 C   0  0  0  0  0  0  0  0  0  0  0  0
  177.4560   19.8640   46.9250 N   0  0  0  0  0  0  0  0  0  0  0  0
  177.4130   21.1830   47.3150 C   0  0  0  0  0  0  0  0  0  0  0  0
  176.3890   21.9180   47.9240 C   0  0  0  0  0  0  0  0  0  0  0  0
  175.0510   21.3570   48.2890 C   0  0  0  0  0  0  0  0  0  0  0  0
  176.6280   23.2280   48.2020 N   0  0  0  0  0  0  0  0  0  0  0  0
  177.8230   23.7730   47.8880 C   0  0  0  0  0  0  0  0  0  0  0  0
  178.8690   23.0940   47.2860 C   0  0  0  0  0  0  0  0  0  0  0  0
  178.6490   21.7420   46.9890 C   0  0  0  0  0  0  0  0  0  0  0  0
  182.2983   16.8836   43.3998 H   0  0  0  0  0  0  0  0  0  0  0  0
  180.6978   16.1954   42.9623 H   0  0  0  0  0  0  0  0  0  0  0  0
  180.9405   17.9752   42.9623 H   0  0  0  0  0  0  0  0  0  0  0  0
  182.2548   19.4167   44.9195 H   0  0  0  0  0  0  0  0  0  0  0  0
  181.3828   21.5583   45.8653 H   0  0  0  0  0  0  0  0  0  0  0  0
  178.5066   17.4481   45.8287 H   0  0  0  0  0  0  0  0  0  0  0  0
  176.7150   19.2260   47.0350 H   0  0  0  0  0  0  0  0  0  0  0  0
  174.9564   21.3173   49.3842 H   0  0  0  0  0  0  0  0  0  0  0  0
  174.2591   21.9989   47.8756 H   0  0  0  0  0  0  0  0  0  0  0  0
  174.9537   20.3423   47.8756 H   0  0  0  0  0  0  0  0  0  0  0  0
  177.9769   24.8353   48.1283 H   0  0  0  0  0  0  0  0  0  0  0  0
  179.8229   23.5899   47.0530 H   0  0  0  0  0  0  0  0  0  0  0  0
  1  2  1  0
  2  3  1  0
  3  4  2  0
  4  5  1  0
  5  6  2  0
  6  7  1  0
  7  8  2  0
  7  9  1  0
  9 10  1  0
 10 11  2  0
 11 12  1  0
 11 13  1  0
 13 14  2  0
 14 15  1  0
 15 16  2  0
  8  3  1  0
 16 10  1  0
 16  6  1  0
  1 17  1  0
  1 18  1  0
  1 19  1  0
  4 20  1  0
  5 21  1  0
  8 22  1  0
  9 23  1  0
 12 24  1  0
 12 25  1  0
 12 26  1  0
 14 27  1  0
 15 28  1  0
M  END
>  <meeko>  (2) 
{"is_sidechain": [false], "free_energy": -7.087, "intermolecular_energy": -7.505, "internal_energy": -0.036}

$$$$
harmine_out
     RDKit          3D

 28 30  0  0  0  0  0  0  0  0999 V2000
  182.9450   21.8870   46.0170 C   0  0  0  0  0  0  0  0  0  0  0  0
  182.3770   20.6170   45.7220 O   0  0  0  0  0  0  0  0  0  0  0  0
  181.0680   20.4250   46.0770 C   0  0  0  0  0  0  0  0  0  0  0  0
  180.3130   19.2810   45.8210 C   0  0  0  0  0  0  0  0  0  0  0  0
  178.9750   19.1950   46.2330 C   0  0  0  0  0  0  0  0  0  0  0  0
  178.3820   20.2780   46.9140 C   0  0  0  0  0  0  0  0  0  0  0  0
  179.1570   21.4090   47.1580 C   0  0  0  0  0  0  0  0  0  0  0  0
  180.4940   21.5100   46.7540 C   0  0  0  0  0  0  0  0  0  0  0  0
  178.3610   22.3080   47.8260 N   0  0  0  0  0  0  0  0  0  0  0  0
  177.0980   21.7990   48.0250 C   0  0  0  0  0  0  0  0  0  0  0  0
  175.9800   22.3610   48.6510 C   0  0  0  0  0  0  0  0  0  0  0  0
  175.9550   23.7240   49.2670 C   0  0  0  0  0  0  0  0  0  0  0  0
  174.8420   21.6180   48.7020 N   0  0  0  0  0  0  0  0  0  0  0  0
  174.8220   20.3820   48.1570 C   0  0  0  0  0  0  0  0  0  0  0  0
  175.8970   19.7790   47.5270 C   0  0  0  0  0  0  0  0  0  0  0  0
  177.0830   20.5230   47.4610 C   0  0  0  0  0  0  0  0  0  0  0  0
  183.0036   22.0181   47.1076 H   0  0  0  0  0  0  0  0  0  0  0  0
  183.9552   21.9459   45.5858 H   0  0  0  0  0  0  0  0  0  0  0  0
  182.3155   22.6793   45.5858 H   0  0  0  0  0  0  0  0  0  0  0  0
  180.7727   18.4350   45.2890 H   0  0  0  0  0  0  0  0  0  0  0  0
  178.3907   18.2864   46.0257 H   0  0  0  0  0  0  0  0  0  0  0  0
  181.0791   22.4178   46.9626 H   0  0  0  0  0  0  0  0  0  0  0  0
  178.6560   23.1990   48.1240 H   0  0  0  0  0  0  0  0  0  0  0  0
  175.9567   23.6311   50.3631 H   0  0  0  0  0  0  0  0  0  0  0  0
  176.8430   24.2880   48.9454 H   0  0  0  0  0  0  0  0  0  0  0  0
  175.0470   24.2551   48.9454 H   0  0  0  0  0  0  0  0  0  0  0  0
  173.8826   19.8131   48.2184 H   0  0  0  0  0  0  0  0  0  0  0  0
  175.8242   18.7678   47.1001 H   0  0  0  0  0  0  0  0  0  0  0  0
  1  2  1  0
  2  3  1  0
  3  4  2  0
  4  5  1  0
  5  6  2  0
  6  7  1  0
  7  8  2  0
  7  9  1  0
  9 10  1  0
 10 11  2  0
 11 12  1  0
 11 13  1  0
 13 14  2  0
 14 15  1  0
 15 16  2  0
  8  3  1  0
 16 10  1  0
 16  6  1  0
  1 17  1  0
  1 18  1  0
  1 19  1  0
  4 20  1  0
  5 21  1  0
  8 22  1  0
  9 23  1  0
 12 24  1  0
 12 25  1  0
 12 26  1  0
 14 27  1  0
 15 28  1  0
M  END
>  <meeko>  (3) 
{"is_sidechain": [false], "free_energy": -6.924, "intermolecular_energy": -7.308, "internal_energy": -0.061}

$$$$
harmine_out
     RDKit          3D

 28 30  0  0  0  0  0  0  0  0999 V2000
  175.4320   23.7680   49.4760 C   0  0  0  0  0  0  0  0  0  0  0  0
  175.1930   22.3680   49.5390 O   0  0  0  0  0  0  0  0  0  0  0  0
  176.0110   21.5640   48.7900 C   0  0  0  0  0  0  0  0  0  0  0  0
  175.6650   20.3270   48.2490 C   0  0  0  0  0  0  0  0  0  0  0  0
  176.5890   19.5880   47.4940 C   0  0  0  0  0  0  0  0  0  0  0  0
  177.8850   20.1000   47.2800 C   0  0  0  0  0  0  0  0  0  0  0  0
  178.2060   21.3380   47.8300 C   0  0  0  0  0  0  0  0  0  0  0  0
  177.2950   22.0880   48.5850 C   0  0  0  0  0  0  0  0  0  0  0  0
  179.5070   21.6110   47.4820 N   0  0  0  0  0  0  0  0  0  0  0  0
  180.0400   20.5930   46.7250 C   0  0  0  0  0  0  0  0  0  0  0  0
  181.3130   20.4510   46.1620 C   0  0  0  0  0  0  0  0  0  0  0  0
  182.4110   21.4600   46.2930 C   0  0  0  0  0  0  0  0  0  0  0  0
  181.5690   19.3200   45.4500 N   0  0  0  0  0  0  0  0  0  0  0  0
  180.6050   18.3850   45.3080 C   0  0  0  0  0  0  0  0  0  0  0  0
  179.3310   18.4740   45.8430 C   0  0  0  0  0  0  0  0  0  0  0  0
  179.0420   19.6300   46.5820 C   0  0  0  0  0  0  0  0  0  0  0  0
  175.5014   24.1744   50.4958 H   0  0  0  0  0  0  0  0  0  0  0  0
  176.3751   23.9553   48.9417 H   0  0  0  0  0  0  0  0  0  0  0  0
  174.6045   24.2576   48.9417 H   0  0  0  0  0  0  0  0  0  0  0  0
  174.6549   19.9248   48.4159 H   0  0  0  0  0  0  0  0  0  0  0  0
  176.3032   18.6136   47.0711 H   0  0  0  0  0  0  0  0  0  0  0  0
  177.5799   23.0634   49.0063 H   0  0  0  0  0  0  0  0  0  0  0  0
  179.9930   22.4270   47.7410 H   0  0  0  0  0  0  0  0  0  0  0  0
  182.6131   21.6457   47.3582 H   0  0  0  0  0  0  0  0  0  0  0  0
  183.3211   21.0765   45.8085 H   0  0  0  0  0  0  0  0  0  0  0  0
  182.1056   22.3992   45.8085 H   0  0  0  0  0  0  0  0  0  0  0  0
  180.8501   17.4857   44.7238 H   0  0  0  0  0  0  0  0  0  0  0  0
  178.5847   17.6794   45.6960 H   0  0  0  0  0  0  0  0  0  0  0  0
  1  2  1  0
  2  3  1  0
  3  4  2  0
  4  5  1  0
  5  6  2  0
  6  7  1  0
  7  8  2  0
  7  9  1  0
  9 10  1  0
 10 11  2  0
 11 12  1  0
 11 13  1  0
 13 14  2  0
 14 15  1  0
 15 16  2  0
  8  3  1  0
 16 10  1  0
 16  6  1  0
  1 17  1  0
  1 18  1  0
  1 19  1  0
  4 20  1  0
  5 21  1  0
  8 22  1  0
  9 23  1  0
 12 24  1  0
 12 25  1  0
 12 26  1  0
 14 27  1  0
 15 28  1  0
M  END
>  <meeko>  (4) 
{"is_sidechain": [false], "free_energy": -6.751, "intermolecular_energy": -7.131, "internal_energy": -0.055}

$$$$
harmine_out
     RDKit          3D

 28 30  0  0  0  0  0  0  0  0999 V2000
  183.3420   21.9180   45.5910 C   0  0  0  0  0  0  0  0  0  0  0  0
  182.5300   20.7560   45.6940 O   0  0  0  0  0  0  0  0  0  0  0  0
  181.3200   20.8970   46.3220 C   0  0  0  0  0  0  0  0  0  0  0  0
  180.9940   21.8850   47.2490 C   0  0  0  0  0  0  0  0  0  0  0  0
  179.7180   21.9330   47.8310 C   0  0  0  0  0  0  0  0  0  0  0  0
  178.7520   20.9710   47.4750 C   0  0  0  0  0  0  0  0  0  0  0  0
  179.1020   19.9950   46.5460 C   0  0  0  0  0  0  0  0  0  0  0  0
  180.3700   19.9340   45.9560 C   0  0  0  0  0  0  0  0  0  0  0  0
  178.0020   19.1900   46.3710 N   0  0  0  0  0  0  0  0  0  0  0  0
  176.9510   19.6100   47.1540 C   0  0  0  0  0  0  0  0  0  0  0  0
  175.6580   19.0940   47.2930 C   0  0  0  0  0  0  0  0  0  0  0  0
  175.1440   17.8970   46.5560 C   0  0  0  0  0  0  0  0  0  0  0  0
  174.8140   19.7220   48.1540 N   0  0  0  0  0  0  0  0  0  0  0  0
  175.2390   20.8060   48.8390 C   0  0  0  0  0  0  0  0  0  0  0  0
  176.5050   21.3580   48.7410 C   0  0  0  0  0  0  0  0  0  0  0  0
  177.3950   20.7290   47.8590 C   0  0  0  0  0  0  0  0  0  0  0  0
  183.5945   22.2794   46.5988 H   0  0  0  0  0  0  0  0  0  0  0  0
  184.2662   21.6725   45.0472 H   0  0  0  0  0  0  0  0  0  0  0  0
  182.7937   22.7014   45.0472 H   0  0  0  0  0  0  0  0  0  0  0  0
  181.7466   22.6371   47.5282 H   0  0  0  0  0  0  0  0  0  0  0  0
  179.4731   22.7179   48.5617 H   0  0  0  0  0  0  0  0  0  0  0  0
  180.6144   19.1503   45.2239 H   0  0  0  0  0  0  0  0  0  0  0  0
  177.9700   18.4140   45.7660 H   0  0  0  0  0  0  0  0  0  0  0  0
  174.8166   17.1345   47.2781 H   0  0  0  0  0  0  0  0  0  0  0  0
  174.2936   18.1928   45.9241 H   0  0  0  0  0  0  0  0  0  0  0  0
  175.9441   17.4840   45.9241 H   0  0  0  0  0  0  0  0  0  0  0  0
  174.5262   21.2859   49.5258 H   0  0  0  0  0  0  0  0  0  0  0  0
  176.7972   22.2435   49.3245 H   0  0  0  0  0  0  0  0  0  0  0  0
  1  2  1  0
  2  3  1  0
  3  4  2  0
  4  5  1  0
  5  6  2  0
  6  7  1  0
  7  8  2  0
  7  9  1  0
  9 10  1  0
 10 11  2  0
 11 12  1  0
 11 13  1  0
 13 14  2  0
 14 15  1  0
 15 16  2  0
  8  3  1  0
 16 10  1  0
 16  6  1  0
  1 17  1  0
  1 18  1  0
  1 19  1  0
  4 20  1  0
  5 21  1  0
  8 22  1  0
  9 23  1  0
 12 24  1  0
 12 25  1  0
 12 26  1  0
 14 27  1  0
 15 28  1  0
M  END
>  <meeko>  (5) 
{"is_sidechain": [false], "free_energy": -6.585, "intermolecular_energy": -6.97, "internal_energy": -0.041}

$$$$
harmine_out
     RDKit          3D

 28 30  0  0  0  0  0  0  0  0999 V2000
  175.1130   23.8010   49.5120 C   0  0  0  0  0  0  0  0  0  0  0  0
  175.2460   22.5690   48.8150 O   0  0  0  0  0  0  0  0  0  0  0  0
  176.4690   22.2990   48.2600 C   0  0  0  0  0  0  0  0  0  0  0  0
  177.5240   23.2010   48.1320 C   0  0  0  0  0  0  0  0  0  0  0  0
  178.7370   22.8110   47.5440 C   0  0  0  0  0  0  0  0  0  0  0  0
  178.8940   21.4920   47.0750 C   0  0  0  0  0  0  0  0  0  0  0  0
  177.8260   20.6090   47.2150 C   0  0  0  0  0  0  0  0  0  0  0  0
  176.6100   20.9820   47.8000 C   0  0  0  0  0  0  0  0  0  0  0  0
  178.2260   19.4040   46.6890 N   0  0  0  0  0  0  0  0  0  0  0  0
  179.5150   19.4750   46.2140 C   0  0  0  0  0  0  0  0  0  0  0  0
  180.3130   18.5000   45.6050 C   0  0  0  0  0  0  0  0  0  0  0  0
  179.8740   17.0940   45.3400 C   0  0  0  0  0  0  0  0  0  0  0  0
  181.5710   18.8550   45.2290 N   0  0  0  0  0  0  0  0  0  0  0  0
  182.0070   20.1140   45.4500 C   0  0  0  0  0  0  0  0  0  0  0  0
  181.2610   21.1160   46.0470 C   0  0  0  0  0  0  0  0  0  0  0  0
  179.9600   20.7760   46.4440 C   0  0  0  0  0  0  0  0  0  0  0  0
  175.1333   23.6132   50.5957 H   0  0  0  0  0  0  0  0  0  0  0  0
  175.9444   24.4679   49.2398 H   0  0  0  0  0  0  0  0  0  0  0  0
  174.1585   24.2751   49.2398 H   0  0  0  0  0  0  0  0  0  0  0  0
  177.4042   24.2319   48.4966 H   0  0  0  0  0  0  0  0  0  0  0  0
  179.5620   23.5324   47.4497 H   0  0  0  0  0  0  0  0  0  0  0  0
  175.7858   20.2599   47.8964 H   0  0  0  0  0  0  0  0  0  0  0  0
  177.6630   18.5970   46.6560 H   0  0  0  0  0  0  0  0  0  0  0  0
  179.7117   16.5742   46.2958 H   0  0  0  0  0  0  0  0  0  0  0  0
  178.9365   17.1049   44.7647 H   0  0  0  0  0  0  0  0  0  0  0  0
  180.6511   16.5695   44.7647 H   0  0  0  0  0  0  0  0  0  0  0  0
  183.0305   20.3617   45.1322 H   0  0  0  0  0  0  0  0  0  0  0  0
  181.6678   22.1262   46.2018 H   0  0  0  0  0  0  0  0  0  0  0  0
  1  2  1  0
  2  3  1  0
  3  4  2  0
  4  5  1  0
  5  6  2  0
  6  7  1  0
  7  8  2  0
  7  9  1  0
  9 10  1  0
 10 11  2  0
 11 12  1  0
 11 13  1  0
 13 14  2  0
 14 15  1  0
 15 16  2  0
  8  3  1  0
 16 10  1  0
 16  6  1  0
  1 17  1  0
  1 18  1  0
  1 19  1  0
  4 20  1  0
  5 21  1  0
  8 22  1  0
  9 23  1  0
 12 24  1  0
 12 25  1  0
 12 26  1  0
 14 27  1  0
 15 28  1  0
M  END
>  <meeko>  (6) 
{"is_sidechain": [false], "free_energy": -6.269, "intermolecular_energy": -6.634, "internal_energy": -0.042}

$$$$
harmine_out
     RDKit          3D

 28 30  0  0  0  0  0  0  0  0999 V2000
  182.1280   18.4720   44.2940 C   0  0  0  0  0  0  0  0  0  0  0  0
  181.8630   19.5070   45.2320 O   0  0  0  0  0  0  0  0  0  0  0  0
  180.5960   19.5660   45.7510 C   0  0  0  0  0  0  0  0  0  0  0  0
  179.6550   18.5380   45.7210 C   0  0  0  0  0  0  0  0  0  0  0  0
  178.3830   18.7110   46.2870 C   0  0  0  0  0  0  0  0  0  0  0  0
  178.0490   19.9390   46.8940 C   0  0  0  0  0  0  0  0  0  0  0  0
  179.0070   20.9490   46.9110 C   0  0  0  0  0  0  0  0  0  0  0  0
  180.2810   20.7920   46.3520 C   0  0  0  0  0  0  0  0  0  0  0  0
  178.4460   22.0280   47.5510 N   0  0  0  0  0  0  0  0  0  0  0  0
  177.1580   21.7520   47.9490 C   0  0  0  0  0  0  0  0  0  0  0  0
  176.2250   22.5490   48.6230 C   0  0  0  0  0  0  0  0  0  0  0  0
  176.4810   23.9540   49.0690 C   0  0  0  0  0  0  0  0  0  0  0  0
  175.0060   22.0080   48.8900 N   0  0  0  0  0  0  0  0  0  0  0  0
  174.7340   20.7420   48.5050 C   0  0  0  0  0  0  0  0  0  0  0  0
  175.6180   19.9120   47.8360 C   0  0  0  0  0  0  0  0  0  0  0  0
  176.8820   20.4450   47.5490 C   0  0  0  0  0  0  0  0  0  0  0  0
  182.3661   17.5422   44.8314 H   0  0  0  0  0  0  0  0  0  0  0  0
  181.2414   18.3137   43.6624 H   0  0  0  0  0  0  0  0  0  0  0  0
  182.9816   18.7593   43.6624 H   0  0  0  0  0  0  0  0  0  0  0  0
  179.9130   17.5792   45.2476 H   0  0  0  0  0  0  0  0  0  0  0  0
  177.6493   17.8920   46.2573 H   0  0  0  0  0  0  0  0  0  0  0  0
  181.0158   21.6100   46.3838 H   0  0  0  0  0  0  0  0  0  0  0  0
  178.9040   22.8860   47.7040 H   0  0  0  0  0  0  0  0  0  0  0  0
  176.4883   23.9942   50.1682 H   0  0  0  0  0  0  0  0  0  0  0  0
  177.4550   24.2894   48.6833 H   0  0  0  0  0  0  0  0  0  0  0  0
  175.6879   24.6114   48.6833 H   0  0  0  0  0  0  0  0  0  0  0  0
  173.7371   20.3409   48.7402 H   0  0  0  0  0  0  0  0  0  0  0  0
  175.3424   18.8876   47.5450 H   0  0  0  0  0  0  0  0  0  0  0  0
  1  2  1  0
  2  3  1  0
  3  4  2  0
  4  5  1  0
  5  6  2  0
  6  7  1  0
  7  8  2  0
  7  9  1  0
  9 10  1  0
 10 11  2  0
 11 12  1  0
 11 13  1  0
 13 14  2  0
 14 15  1  0
 15 16  2  0
  8  3  1  0
 16 10  1  0
 16  6  1  0
  1 17  1  0
  1 18  1  0
  1 19  1  0
  4 20  1  0
  5 21  1  0
  8 22  1  0
  9 23  1  0
 12 24  1  0
 12 25  1  0
 12 26  1  0
 14 27  1  0
 15 28  1  0
M  END
>  <meeko>  (7) 
{"is_sidechain": [false], "free_energy": -5.99, "intermolecular_energy": -6.339, "internal_energy": -0.041}

$$$$
harmine_out
     RDKit          3D

 28 30  0  0  0  0  0  0  0  0999 V2000
  180.9020   15.5240   41.3570 C   0  0  0  0  0  0  0  0  0  0  0  0
  181.4040   15.3180   42.6700 O   0  0  0  0  0  0  0  0  0  0  0  0
  181.1000   16.2700   43.6080 C   0  0  0  0  0  0  0  0  0  0  0  0
  180.0360   16.2190   44.5060 C   0  0  0  0  0  0  0  0  0  0  0  0
  179.8210   17.2560   45.4260 C   0  0  0  0  0  0  0  0  0  0  0  0
  180.6900   18.3660   45.4440 C   0  0  0  0  0  0  0  0  0  0  0  0
  181.7460   18.3920   44.5370 C   0  0  0  0  0  0  0  0  0  0  0  0
  181.9750   17.3650   43.6140 C   0  0  0  0  0  0  0  0  0  0  0  0
  182.4370   19.5600   44.7550 N   0  0  0  0  0  0  0  0  0  0  0  0
  181.8660   20.2910   45.7720 C   0  0  0  0  0  0  0  0  0  0  0  0
  182.2320   21.5250   46.3200 C   0  0  0  0  0  0  0  0  0  0  0  0
  183.4040   22.3360   45.8640 C   0  0  0  0  0  0  0  0  0  0  0  0
  181.4720   22.0180   47.3340 N   0  0  0  0  0  0  0  0  0  0  0  0
  180.4050   21.3170   47.7760 C   0  0  0  0  0  0  0  0  0  0  0  0
  179.9990   20.0940   47.2700 C   0  0  0  0  0  0  0  0  0  0  0  0
  180.7650   19.5630   46.2240 C   0  0  0  0  0  0  0  0  0  0  0  0
  179.8857   15.9410   41.4142 H   0  0  0  0  0  0  0  0  0  0  0  0
  181.5567   16.2261   40.8201 H   0  0  0  0  0  0  0  0  0  0  0  0
  180.8748   14.5643   40.8201 H   0  0  0  0  0  0  0  0  0  0  0  0
  179.3558   15.3546   44.4934 H   0  0  0  0  0  0  0  0  0  0  0  0
  178.9778   17.2033   46.1305 H   0  0  0  0  0  0  0  0  0  0  0  0
  182.8199   17.4159   42.9114 H   0  0  0  0  0  0  0  0  0  0  0  0
  183.2350   19.8370   44.2500 H   0  0  0  0  0  0  0  0  0  0  0  0
  183.9511   22.7145   46.7400 H   0  0  0  0  0  0  0  0  0  0  0  0
  184.0723   21.7062   45.2584 H   0  0  0  0  0  0  0  0  0  0  0  0
  183.0502   23.1834   45.2584 H   0  0  0  0  0  0  0  0  0  0  0  0
  179.8158   21.7496   48.5980 H   0  0  0  0  0  0  0  0  0  0  0  0
  179.1201   19.5663   47.6687 H   0  0  0  0  0  0  0  0  0  0  0  0
  1  2  1  0
  2  3  1  0
  3  4  2  0
  4  5  1  0
  5  6  2  0
  6  7  1  0
  7  8  2  0
  7  9  1  0
  9 10  1  0
 10 11  2  0
 11 12  1  0
 11 13  1  0
 13 14  2  0
 14 15  1  0
 15 16  2  0
  8  3  1  0
 16 10  1  0
 16  6  1  0
  1 17  1  0
  1 18  1  0
  1 19  1  0
  4 20  1  0
  5 21  1  0
  8 22  1  0
  9 23  1  0
 12 24  1  0
 12 25  1  0
 12 26  1  0
 14 27  1  0
 15 28  1  0
M  END
>  <meeko>  (8) 
{"is_sidechain": [false], "free_energy": -4.848, "intermolecular_energy": -5.132, "internal_energy": -0.041}

$$$$
harmine_out
     RDKit          3D

 28 30  0  0  0  0  0  0  0  0999 V2000
  174.3940   18.9120   47.0400 C   0  0  0  0  0  0  0  0  0  0  0  0
  174.8600   19.9930   47.8360 O   0  0  0  0  0  0  0  0  0  0  0  0
  176.1650   20.3740   47.6620 C   0  0  0  0  0  0  0  0  0  0  0  0
  176.7730   21.4860   48.2420 C   0  0  0  0  0  0  0  0  0  0  0  0
  178.1220   21.7800   47.9920 C   0  0  0  0  0  0  0  0  0  0  0  0
  178.8750   20.9420   47.1450 C   0  0  0  0  0  0  0  0  0  0  0  0
  178.2450   19.8370   46.5790 C   0  0  0  0  0  0  0  0  0  0  0  0
  176.9000   19.5300   46.8190 C   0  0  0  0  0  0  0  0  0  0  0  0
  179.1790   19.1900   45.8070 N   0  0  0  0  0  0  0  0  0  0  0  0
  180.3920   19.8370   45.8530 C   0  0  0  0  0  0  0  0  0  0  0  0
  181.6080   19.5340   45.2270 C   0  0  0  0  0  0  0  0  0  0  0  0
  181.8220   18.3590   44.3260 C   0  0  0  0  0  0  0  0  0  0  0  0
  182.6610   20.3640   45.4550 N   0  0  0  0  0  0  0  0  0  0  0  0
  182.5090   21.4360   46.2630 C   0  0  0  0  0  0  0  0  0  0  0  0
  181.3320   21.7810   46.9050 C   0  0  0  0  0  0  0  0  0  0  0  0
  180.2300   20.9420   46.6870 C   0  0  0  0  0  0  0  0  0  0  0  0
  174.0438   18.0996   47.6937 H   0  0  0  0  0  0  0  0  0  0  0  0
  173.5640   19.2554   46.4051 H   0  0  0  0  0  0  0  0  0  0  0  0
  175.2135   18.5443   46.4051 H   0  0  0  0  0  0  0  0  0  0  0  0
  176.1880   22.1413   48.9040 H   0  0  0  0  0  0  0  0  0  0  0  0
  178.5901   22.6611   48.4552 H   0  0  0  0  0  0  0  0  0  0  0  0
  176.4321   18.6481   46.3572 H   0  0  0  0  0  0  0  0  0  0  0  0
  179.0030   18.3710   45.2890 H   0  0  0  0  0  0  0  0  0  0  0  0
  181.9864   17.4566   44.9331 H   0  0  0  0  0  0  0  0  0  0  0  0
  180.9349   18.2173   43.6912 H   0  0  0  0  0  0  0  0  0  0  0  0
  182.7021   18.5392   43.6912 H   0  0  0  0  0  0  0  0  0  0  0  0
  183.3848   22.0822   46.4225 H   0  0  0  0  0  0  0  0  0  0  0  0
  181.2648   22.6676   47.5527 H   0  0  0  0  0  0  0  0  0  0  0  0
  1  2  1  0
  2  3  1  0
  3  4  2  0
  4  5  1  0
  5  6  2  0
  6  7  1  0
  7  8  2  0
  7  9  1  0
  9 10  1  0
 10 11  2  0
 11 12  1  0
 11 13  1  0
 13 14  2  0
 14 15  1  0
 15 16  2  0
  8  3  1  0
 16 10  1  0
 16  6  1  0
  1 17  1  0
  1 18  1  0
  1 19  1  0
  4 20  1  0
  5 21  1  0
  8 22  1  0
  9 23  1  0
 12 24  1  0
 12 25  1  0
 12 26  1  0
 14 27  1  0
 15 28  1  0
M  END
>  <meeko>  (9) 
{"is_sidechain": [false], "free_energy": -4.835, "intermolecular_energy": -5.097, "internal_energy": -0.061}

$$$$
