lazabemide_out
     RDKit          3D

 24 24  0  0  0  0  0  0  0  0999 V2000
  174.8590   20.8850   50.3720 N   0  0  0  0  0  0  0  0  0  0  0  0
  174.8270   20.6920   48.9160 C   0  0  0  0  0  0  0  0  0  0  0  0
  175.4190   21.8950   48.1670 C   0  0  0  0  0  0  0  0  0  0  0  0
  176.7220   21.6060   47.6000 N   0  0  0  0  0  0  0  0  0  0  0  0
  177.8610   21.4950   48.3640 C   0  0  0  0  0  0  0  0  0  0  0  0
  177.8750   21.5520   49.5880 O   0  0  0  0  0  0  0  0  0  0  0  0
  179.1210   21.3130   47.5720 C   0  0  0  0  0  0  0  0  0  0  0  0
  179.0980   20.5760   46.3930 C   0  0  0  0  0  0  0  0  0  0  0  0
  180.2900   20.4230   45.6850 C   0  0  0  0  0  0  0  0  0  0  0  0
  181.4520   21.0060   46.1770 C   0  0  0  0  0  0  0  0  0  0  0  0
  182.9380   20.8410   45.3340 Cl  0  0  0  0  0  0  0  0  0  0  0  0
  181.3840   21.7240   47.3640 C   0  0  0  0  0  0  0  0  0  0  0  0
  180.2460   21.8940   48.0810 N   0  0  0  0  0  0  0  0  0  0  0  0
  174.3570   21.7390   50.6120 H   0  0  0  0  0  0  0  0  0  0  0  0
  175.8270   20.9590   50.6830 H   0  0  0  0  0  0  0  0  0  0  0  0
  174.4140   20.0890   50.8300 H   0  0  0  0  0  0  0  0  0  0  0  0
  175.4094   19.7937   48.6632 H   0  0  0  0  0  0  0  0  0  0  0  0
  173.7764   20.5820   48.6091 H   0  0  0  0  0  0  0  0  0  0  0  0
  174.7342   22.1766   47.3535 H   0  0  0  0  0  0  0  0  0  0  0  0
  175.5423   22.7137   48.8913 H   0  0  0  0  0  0  0  0  0  0  0  0
  176.7940   21.4830   46.6250 H   0  0  0  0  0  0  0  0  0  0  0  0
  178.1634   20.1251   46.0280 H   0  0  0  0  0  0  0  0  0  0  0  0
  180.3103   19.8474   44.7478 H   0  0  0  0  0  0  0  0  0  0  0  0
  182.3087   22.1820   47.7451 H   0  0  0  0  0  0  0  0  0  0  0  0
  1  2  1  0
  2  3  1  0
  3  4  1  0
  4  5  1  0
  5  6  2  0
  5  7  1  0
  7  8  2  0
  8  9  1  0
  9 10  2  0
 10 11  1  0
 10 12  1  0
 12 13  2  0
 13  7  1  0
  1 14  1  0
  1 15  1  0
  1 16  1  0
  2 17  1  0
  2 18  1  0
  3 19  1  0
  3 20  1  0
  4 21  1  0
  8 22  1  0
  9 23  1  0
 12 24  1  0
M  CHG  1   1   1
M  END
>  <meeko>  (1) 
{"is_sidechain": [false], "free_energy": -5.317, "intermolecular_energy": -6.404, "internal_energy": -0.277}

$$$$
lazabemide_out
     RDKit          3D

 24 24  0  0  0  0  0  0  0  0999 V2000
  176.4130   24.1240   50.3300 N   0  0  0  0  0  0  0  0  0  0  0  0
  175.5290   23.8500   49.1890 C   0  0  0  0  0  0  0  0  0  0  0  0
  175.3750   22.3440   48.9340 C   0  0  0  0  0  0  0  0  0  0  0  0
  176.4920   21.7910   48.1940 N   0  0  0  0  0  0  0  0  0  0  0  0
  177.6230   21.2990   48.8050 C   0  0  0  0  0  0  0  0  0  0  0  0
  177.7630   21.2100   50.0200 O   0  0  0  0  0  0  0  0  0  0  0  0
  178.7080   20.8860   47.8580 C   0  0  0  0  0  0  0  0  0  0  0  0
  178.3930   20.5570   46.5430 C   0  0  0  0  0  0  0  0  0  0  0  0
  179.4280   20.1720   45.6910 C   0  0  0  0  0  0  0  0  0  0  0  0
  180.7290   20.1300   46.1780 C   0  0  0  0  0  0  0  0  0  0  0  0
  182.0290   19.6630   45.1600 Cl  0  0  0  0  0  0  0  0  0  0  0  0
  180.9530   20.4740   47.5050 C   0  0  0  0  0  0  0  0  0  0  0  0
  179.9750   20.8510   48.3650 N   0  0  0  0  0  0  0  0  0  0  0  0
  177.2470   23.5400   50.2610 H   0  0  0  0  0  0  0  0  0  0  0  0
  175.9210   23.9150   51.1980 H   0  0  0  0  0  0  0  0  0  0  0  0
  176.6850   25.1070   50.3210 H   0  0  0  0  0  0  0  0  0  0  0  0
  174.5375   24.2790   49.3960 H   0  0  0  0  0  0  0  0  0  0  0  0
  175.9777   24.3037   48.2930 H   0  0  0  0  0  0  0  0  0  0  0  0
  175.3027   21.8275   49.9025 H   0  0  0  0  0  0  0  0  0  0  0  0
  174.4675   22.1976   48.3298 H   0  0  0  0  0  0  0  0  0  0  0  0
  176.4400   21.7660   47.2110 H   0  0  0  0  0  0  0  0  0  0  0  0
  177.3539   20.5995   46.1846 H   0  0  0  0  0  0  0  0  0  0  0  0
  179.2169   19.9045   44.6451 H   0  0  0  0  0  0  0  0  0  0  0  0
  181.9862   20.4384   47.8808 H   0  0  0  0  0  0  0  0  0  0  0  0
  1  2  1  0
  2  3  1  0
  3  4  1  0
  4  5  1  0
  5  6  2  0
  5  7  1  0
  7  8  2  0
  8  9  1  0
  9 10  2  0
 10 11  1  0
 10 12  1  0
 12 13  2  0
 13  7  1  0
  1 14  1  0
  1 15  1  0
  1 16  1  0
  2 17  1  0
  2 18  1  0
  3 19  1  0
  3 20  1  0
  4 21  1  0
  8 22  1  0
  9 23  1  0
 12 24  1  0
M  CHG  1   1   1
M  END
>  <meeko>  (2) 
{"is_sidechain": [false], "free_energy": -5.292, "intermolecular_energy": -6.328, "internal_energy": -0.325}

$$$$
lazabemide_out
     RDKit          3D

 24 24  0  0  0  0  0  0  0  0999 V2000
  184.0310   22.9460   46.8900 N   0  0  0  0  0  0  0  0  0  0  0  0
  183.2910   22.4520   45.7220 C   0  0  0  0  0  0  0  0  0  0  0  0
  182.6640   21.0740   45.9840 C   0  0  0  0  0  0  0  0  0  0  0  0
  181.2520   21.1600   46.2980 N   0  0  0  0  0  0  0  0  0  0  0  0
  180.7830   21.4650   47.5560 C   0  0  0  0  0  0  0  0  0  0  0  0
  181.5030   21.7640   48.5020 O   0  0  0  0  0  0  0  0  0  0  0  0
  179.2940   21.3850   47.6980 C   0  0  0  0  0  0  0  0  0  0  0  0
  178.5210   20.9220   46.6370 C   0  0  0  0  0  0  0  0  0  0  0  0
  177.1370   20.8660   46.8030 C   0  0  0  0  0  0  0  0  0  0  0  0
  176.5800   21.2700   48.0110 C   0  0  0  0  0  0  0  0  0  0  0  0
  174.8820   21.2130   48.2530 Cl  0  0  0  0  0  0  0  0  0  0  0  0
  177.4270   21.7190   49.0160 C   0  0  0  0  0  0  0  0  0  0  0  0
  178.7760   21.7910   48.8930 N   0  0  0  0  0  0  0  0  0  0  0  0
  183.9640   23.9630   46.9290 H   0  0  0  0  0  0  0  0  0  0  0  0
  185.0100   22.6710   46.8130 H   0  0  0  0  0  0  0  0  0  0  0  0
  183.6320   22.5470   47.7390 H   0  0  0  0  0  0  0  0  0  0  0  0
  182.4909   23.1667   45.4792 H   0  0  0  0  0  0  0  0  0  0  0  0
  183.9991   22.3518   44.8862 H   0  0  0  0  0  0  0  0  0  0  0  0
  182.7887   20.4525   45.0850 H   0  0  0  0  0  0  0  0  0  0  0  0
  183.1745   20.6331   46.8529 H   0  0  0  0  0  0  0  0  0  0  0  0
  180.5990   20.9930   45.5800 H   0  0  0  0  0  0  0  0  0  0  0  0
  178.9892   20.6085   45.6923 H   0  0  0  0  0  0  0  0  0  0  0  0
  176.4933   20.5060   45.9868 H   0  0  0  0  0  0  0  0  0  0  0  0
  176.9770   22.0351   49.9687 H   0  0  0  0  0  0  0  0  0  0  0  0
  1  2  1  0
  2  3  1  0
  3  4  1  0
  4  5  1  0
  5  6  2  0
  5  7  1  0
  7  8  2  0
  8  9  1  0
  9 10  2  0
 10 11  1  0
 10 12  1  0
 12 13  2  0
 13  7  1  0
  1 14  1  0
  1 15  1  0
  1 16  1  0
  2 17  1  0
  2 18  1  0
  3 19  1  0
  3 20  1  0
  4 21  1  0
  8 22  1  0
  9 23  1  0
 12 24  1  0
M  CHG  1   1   1
M  END
>  <meeko>  (3) 
{"is_sidechain": [false], "free_energy": -5.273, "intermolecular_energy": -6.279, "internal_energy": -0.35}

$$$$
lazabemide_out
     RDKit          3D

 24 24  0  0  0  0  0  0  0  0999 V2000
  174.7390   21.2670   50.2970 N   0  0  0  0  0  0  0  0  0  0  0  0
  175.5010   20.0590   49.9570 C   0  0  0  0  0  0  0  0  0  0  0  0
  175.6370   19.8770   48.4380 C   0  0  0  0  0  0  0  0  0  0  0  0
  176.9410   20.2760   47.9480 N   0  0  0  0  0  0  0  0  0  0  0  0
  177.5700   19.6440   46.8990 C   0  0  0  0  0  0  0  0  0  0  0  0
  177.0640   18.7460   46.2360 O   0  0  0  0  0  0  0  0  0  0  0  0
  178.9610   20.1320   46.6270 C   0  0  0  0  0  0  0  0  0  0  0  0
  179.7890   19.4200   45.7650 C   0  0  0  0  0  0  0  0  0  0  0  0
  181.0790   19.9010   45.5400 C   0  0  0  0  0  0  0  0  0  0  0  0
  181.4920   21.0640   46.1790 C   0  0  0  0  0  0  0  0  0  0  0  0
  183.0710   21.6870   45.9260 Cl  0  0  0  0  0  0  0  0  0  0  0  0
  180.5990   21.7100   47.0250 C   0  0  0  0  0  0  0  0  0  0  0  0
  179.3390   21.2740   47.2710 N   0  0  0  0  0  0  0  0  0  0  0  0
  173.9220   21.0080   50.8500 H   0  0  0  0  0  0  0  0  0  0  0  0
  174.4390   21.7310   49.4410 H   0  0  0  0  0  0  0  0  0  0  0  0
  175.3290   21.9000   50.8380 H   0  0  0  0  0  0  0  0  0  0  0  0
  176.5060   20.1367   50.3974 H   0  0  0  0  0  0  0  0  0  0  0  0
  174.9590   19.1897   50.3576 H   0  0  0  0  0  0  0  0  0  0  0  0
  175.4772   18.8164   48.1937 H   0  0  0  0  0  0  0  0  0  0  0  0
  174.8863   20.5197   47.9549 H   0  0  0  0  0  0  0  0  0  0  0  0
  177.3970   21.0320   48.3840 H   0  0  0  0  0  0  0  0  0  0  0  0
  179.4356   18.5015   45.2736 H   0  0  0  0  0  0  0  0  0  0  0  0
  181.7619   19.3655   44.8641 H   0  0  0  0  0  0  0  0  0  0  0  0
  180.9344   22.6305   47.5252 H   0  0  0  0  0  0  0  0  0  0  0  0
  1  2  1  0
  2  3  1  0
  3  4  1  0
  4  5  1  0
  5  6  2  0
  5  7  1  0
  7  8  2  0
  8  9  1  0
  9 10  2  0
 10 11  1  0
 10 12  1  0
 12 13  2  0
 13  7  1  0
  1 14  1  0
  1 15  1  0
  1 16  1  0
  2 17  1  0
  2 18  1  0
  3 19  1  0
  3 20  1  0
  4 21  1  0
  8 22  1  0
  9 23  1  0
 12 24  1  0
M  CHG  1   1   1
M  END
>  <meeko>  (4) 
{"is_sidechain": [false], "free_energy": -5.254, "intermolecular_energy": -6.461, "internal_energy": -0.145}

$$$$
lazabemide_out
     RDKit          3D

 24 24  0  0  0  0  0  0  0  0999 V2000
  174.8050   21.1480   50.2470 N   0  0  0  0  0  0  0  0  0  0  0  0
  175.3670   21.5850   48.9630 C   0  0  0  0  0  0  0  0  0  0  0  0
  176.8530   21.9570   49.0870 C   0  0  0  0  0  0  0  0  0  0  0  0
  177.6980   21.1470   48.2320 N   0  0  0  0  0  0  0  0  0  0  0  0
  179.0110   21.4640   47.9630 C   0  0  0  0  0  0  0  0  0  0  0  0
  179.6080   22.4040   48.4730 O   0  0  0  0  0  0  0  0  0  0  0  0
  179.6710   20.5650   46.9630 C   0  0  0  0  0  0  0  0  0  0  0  0
  180.8980   20.9220   46.4130 C   0  0  0  0  0  0  0  0  0  0  0  0
  181.4810   20.0640   45.4810 C   0  0  0  0  0  0  0  0  0  0  0  0
  180.8230   18.8890   45.1340 C   0  0  0  0  0  0  0  0  0  0  0  0
  181.5090   17.8070   43.9930 Cl  0  0  0  0  0  0  0  0  0  0  0  0
  179.6000   18.6120   45.7310 C   0  0  0  0  0  0  0  0  0  0  0  0
  179.0000   19.4210   46.6390 N   0  0  0  0  0  0  0  0  0  0  0  0
  174.4960   21.9620   50.7770 H   0  0  0  0  0  0  0  0  0  0  0  0
  175.5170   20.6460   50.7760 H   0  0  0  0  0  0  0  0  0  0  0  0
  174.0100   20.5320   50.0770 H   0  0  0  0  0  0  0  0  0  0  0  0
  175.2641   20.7685   48.2331 H   0  0  0  0  0  0  0  0  0  0  0  0
  174.8169   22.4796   48.6359 H   0  0  0  0  0  0  0  0  0  0  0  0
  176.9772   23.0137   48.8078 H   0  0  0  0  0  0  0  0  0  0  0  0
  177.1583   21.7770   50.1283 H   0  0  0  0  0  0  0  0  0  0  0  0
  177.3170   20.3350   47.8260 H   0  0  0  0  0  0  0  0  0  0  0  0
  181.3960   21.8580   46.7061 H   0  0  0  0  0  0  0  0  0  0  0  0
  182.4505   20.3138   45.0254 H   0  0  0  0  0  0  0  0  0  0  0  0
  179.0871   17.6802   45.4504 H   0  0  0  0  0  0  0  0  0  0  0  0
  1  2  1  0
  2  3  1  0
  3  4  1  0
  4  5  1  0
  5  6  2  0
  5  7  1  0
  7  8  2  0
  8  9  1  0
  9 10  2  0
 10 11  1  0
 10 12  1  0
 12 13  2  0
 13  7  1  0
  1 14  1  0
  1 15  1  0
  1 16  1  0
  2 17  1  0
  2 18  1  0
  3 19  1  0
  3 20  1  0
  4 21  1  0
  8 22  1  0
  9 23  1  0
 12 24  1  0
M  CHG  1   1   1
M  END
>  <meeko>  (5) 
{"is_sidechain": [false], "free_energy": -5.211, "intermolecular_energy": -6.416, "internal_energy": -0.139}

$$$$
lazabemide_out
     RDKit          3D

 24 24  0  0  0  0  0  0  0  0999 V2000
  181.1480   14.7730   40.3120 N   0  0  0  0  0  0  0  0  0  0  0  0
  180.7620   15.8490   41.2330 C   0  0  0  0  0  0  0  0  0  0  0  0
  181.5450   15.7800   42.5530 C   0  0  0  0  0  0  0  0  0  0  0  0
  181.3450   16.9570   43.3760 N   0  0  0  0  0  0  0  0  0  0  0  0
  180.6870   16.9210   44.5840 C   0  0  0  0  0  0  0  0  0  0  0  0
  180.2770   15.8930   45.1120 O   0  0  0  0  0  0  0  0  0  0  0  0
  180.4830   18.2630   45.2180 C   0  0  0  0  0  0  0  0  0  0  0  0
  181.4680   19.2400   45.1040 C   0  0  0  0  0  0  0  0  0  0  0  0
  181.2470   20.4760   45.7110 C   0  0  0  0  0  0  0  0  0  0  0  0
  180.0600   20.6910   46.4040 C   0  0  0  0  0  0  0  0  0  0  0  0
  179.7510   22.1990   47.1620 Cl  0  0  0  0  0  0  0  0  0  0  0  0
  179.1330   19.6590   46.4670 C   0  0  0  0  0  0  0  0  0  0  0  0
  179.3120   18.4440   45.8930 N   0  0  0  0  0  0  0  0  0  0  0  0
  181.6500   15.1690   39.5180 H   0  0  0  0  0  0  0  0  0  0  0  0
  180.3110   14.2930   39.9810 H   0  0  0  0  0  0  0  0  0  0  0  0
  181.7510   14.1090   40.7990 H   0  0  0  0  0  0  0  0  0  0  0  0
  180.9608   16.8179   40.7516 H   0  0  0  0  0  0  0  0  0  0  0  0
  179.6927   15.7336   41.4639 H   0  0  0  0  0  0  0  0  0  0  0  0
  181.2124   14.8950   43.1153 H   0  0  0  0  0  0  0  0  0  0  0  0
  182.6152   15.7213   42.3057 H   0  0  0  0  0  0  0  0  0  0  0  0
  181.6980   17.8190   43.0570 H   0  0  0  0  0  0  0  0  0  0  0  0
  182.3971   19.0422   44.5493 H   0  0  0  0  0  0  0  0  0  0  0  0
  182.0029   21.2722   45.6426 H   0  0  0  0  0  0  0  0  0  0  0  0
  178.1967   19.8383   47.0159 H   0  0  0  0  0  0  0  0  0  0  0  0
  1  2  1  0
  2  3  1  0
  3  4  1  0
  4  5  1  0
  5  6  2  0
  5  7  1  0
  7  8  2  0
  8  9  1  0
  9 10  2  0
 10 11  1  0
 10 12  1  0
 12 13  2  0
 13  7  1  0
  1 14  1  0
  1 15  1  0
  1 16  1  0
  2 17  1  0
  2 18  1  0
  3 19  1  0
  3 20  1  0
  4 21  1  0
  8 22  1  0
  9 23  1  0
 12 24  1  0
M  CHG  1   1   1
M  END
>  <meeko>  (6) 
{"is_sidechain": [false], "free_energy": -4.953, "intermolecular_energy": -6.096, "internal_energy": -0.148}

$$$$
lazabemide_out
     RDKit          3D

 24 24  0  0  0  0  0  0  0  0999 V2000
  187.3390   21.1190   44.3200 N   0  0  0  0  0  0  0  0  0  0  0  0
  186.2410   21.8590   43.6860 C   0  0  0  0  0  0  0  0  0  0  0  0
  185.4460   22.6880   44.7060 C   0  0  0  0  0  0  0  0  0  0  0  0
  184.1400   22.1220   44.9800 N   0  0  0  0  0  0  0  0  0  0  0  0
  183.4620   22.3430   46.1580 C   0  0  0  0  0  0  0  0  0  0  0  0
  183.8550   23.0900   47.0460 O   0  0  0  0  0  0  0  0  0  0  0  0
  182.1840   21.5710   46.2900 C   0  0  0  0  0  0  0  0  0  0  0  0
  182.0070   20.3950   45.5670 C   0  0  0  0  0  0  0  0  0  0  0  0
  180.8030   19.7060   45.7110 C   0  0  0  0  0  0  0  0  0  0  0  0
  179.8280   20.2110   46.5650 C   0  0  0  0  0  0  0  0  0  0  0  0
  178.3350   19.3900   46.7690 Cl  0  0  0  0  0  0  0  0  0  0  0  0
  180.0900   21.3930   47.2460 C   0  0  0  0  0  0  0  0  0  0  0  0
  181.2450   22.0920   47.1310 N   0  0  0  0  0  0  0  0  0  0  0  0
  188.1990   21.2700   43.7940 H   0  0  0  0  0  0  0  0  0  0  0  0
  187.1150   20.1240   44.3300 H   0  0  0  0  0  0  0  0  0  0  0  0
  187.4630   21.4490   45.2770 H   0  0  0  0  0  0  0  0  0  0  0  0
  186.6599   22.5357   42.9267 H   0  0  0  0  0  0  0  0  0  0  0  0
  185.5554   21.1289   43.2311 H   0  0  0  0  0  0  0  0  0  0  0  0
  186.0159   22.7328   45.6458 H   0  0  0  0  0  0  0  0  0  0  0  0
  185.2943   23.6901   44.2785 H   0  0  0  0  0  0  0  0  0  0  0  0
  183.7190   21.5560   44.2930 H   0  0  0  0  0  0  0  0  0  0  0  0
  182.7962   20.0188   44.8994 H   0  0  0  0  0  0  0  0  0  0  0  0
  180.6263   18.7733   45.1552 H   0  0  0  0  0  0  0  0  0  0  0  0
  179.3132   21.7850   47.9190 H   0  0  0  0  0  0  0  0  0  0  0  0
  1  2  1  0
  2  3  1  0
  3  4  1  0
  4  5  1  0
  5  6  2  0
  5  7  1  0
  7  8  2  0
  8  9  1  0
  9 10  2  0
 10 11  1  0
 10 12  1  0
 12 13  2  0
 13  7  1  0
  1 14  1  0
  1 15  1  0
  1 16  1  0
  2 17  1  0
  2 18  1  0
  3 19  1  0
  3 20  1  0
  4 21  1  0
  8 22  1  0
  9 23  1  0
 12 24  1  0
M  CHG  1   1   1
M  END
>  <meeko>  (7) 
{"is_sidechain": [false], "free_energy": -4.795, "intermolecular_energy": -5.908, "internal_energy": -0.145}

$$$$
lazabemide_out
     RDKit          3D

 24 24  0  0  0  0  0  0  0  0999 V2000
  180.0280   17.7710   45.4290 N   0  0  0  0  0  0  0  0  0  0  0  0
  181.0880   18.4900   44.7110 C   0  0  0  0  0  0  0  0  0  0  0  0
  181.5470   19.7420   45.4740 C   0  0  0  0  0  0  0  0  0  0  0  0
  180.4350   20.4910   46.0260 N   0  0  0  0  0  0  0  0  0  0  0  0
  180.6000   21.5080   46.9390 C   0  0  0  0  0  0  0  0  0  0  0  0
  181.6900   21.9260   47.3110 O   0  0  0  0  0  0  0  0  0  0  0  0
  179.3190   22.0720   47.4740 C   0  0  0  0  0  0  0  0  0  0  0  0
  178.1010   21.5790   47.0190 C   0  0  0  0  0  0  0  0  0  0  0  0
  176.9290   22.1310   47.5350 C   0  0  0  0  0  0  0  0  0  0  0  0
  177.0150   23.1470   48.4800 C   0  0  0  0  0  0  0  0  0  0  0  0
  175.5960   23.8500   49.1400 Cl  0  0  0  0  0  0  0  0  0  0  0  0
  178.2740   23.5800   48.8770 C   0  0  0  0  0  0  0  0  0  0  0  0
  179.4350   23.0700   48.3970 N   0  0  0  0  0  0  0  0  0  0  0  0
  180.1650   17.8770   46.4330 H   0  0  0  0  0  0  0  0  0  0  0  0
  180.0620   16.7820   45.1820 H   0  0  0  0  0  0  0  0  0  0  0  0
  179.1200   18.1550   45.1670 H   0  0  0  0  0  0  0  0  0  0  0  0
  181.9486   17.8175   44.5802 H   0  0  0  0  0  0  0  0  0  0  0  0
  180.6851   18.8109   43.7390 H   0  0  0  0  0  0  0  0  0  0  0  0
  182.2074   19.4318   46.2972 H   0  0  0  0  0  0  0  0  0  0  0  0
  182.0712   20.3958   44.7615 H   0  0  0  0  0  0  0  0  0  0  0  0
  179.5230   20.2630   45.7350 H   0  0  0  0  0  0  0  0  0  0  0  0
  178.0629   20.7737   46.2707 H   0  0  0  0  0  0  0  0  0  0  0  0
  175.9473   21.7666   47.1980 H   0  0  0  0  0  0  0  0  0  0  0  0
  178.3324   24.3843   49.6251 H   0  0  0  0  0  0  0  0  0  0  0  0
  1  2  1  0
  2  3  1  0
  3  4  1  0
  4  5  1  0
  5  6  2  0
  5  7  1  0
  7  8  2  0
  8  9  1  0
  9 10  2  0
 10 11  1  0
 10 12  1  0
 12 13  2  0
 13  7  1  0
  1 14  1  0
  1 15  1  0
  1 16  1  0
  2 17  1  0
  2 18  1  0
  3 19  1  0
  3 20  1  0
  4 21  1  0
  8 22  1  0
  9 23  1  0
 12 24  1  0
M  CHG  1   1   1
M  END
>  <meeko>  (8) 
{"is_sidechain": [false], "free_energy": -4.713, "intermolecular_energy": -5.79, "internal_energy": -0.164}

$$$$
lazabemide_out
     RDKit          3D

 24 24  0  0  0  0  0  0  0  0999 V2000
  181.2450   16.6470   41.7470 N   0  0  0  0  0  0  0  0  0  0  0  0
  181.1790   16.4980   43.2060 C   0  0  0  0  0  0  0  0  0  0  0  0
  181.7290   17.7350   43.9320 C   0  0  0  0  0  0  0  0  0  0  0  0
  180.6870   18.5010   44.5870 N   0  0  0  0  0  0  0  0  0  0  0  0
  180.9520   19.5740   45.4080 C   0  0  0  0  0  0  0  0  0  0  0  0
  182.0730   20.0280   45.6030 O   0  0  0  0  0  0  0  0  0  0  0  0
  179.7430   20.1520   46.0790 C   0  0  0  0  0  0  0  0  0  0  0  0
  178.5850   19.3900   46.1970 C   0  0  0  0  0  0  0  0  0  0  0  0
  177.4780   19.9630   46.8240 C   0  0  0  0  0  0  0  0  0  0  0  0
  177.5670   21.2650   47.3050 C   0  0  0  0  0  0  0  0  0  0  0  0
  176.2270   22.0020   48.0820 Cl  0  0  0  0  0  0  0  0  0  0  0  0
  178.7620   21.9530   47.1420 C   0  0  0  0  0  0  0  0  0  0  0  0
  179.8590   21.4320   46.5380 N   0  0  0  0  0  0  0  0  0  0  0  0
  180.8660   17.5550   41.4800 H   0  0  0  0  0  0  0  0  0  0  0  0
  180.7000   15.9060   41.3060 H   0  0  0  0  0  0  0  0  0  0  0  0
  182.2160   16.5810   41.4430 H   0  0  0  0  0  0  0  0  0  0  0  0
  180.1299   16.3490   43.5015 H   0  0  0  0  0  0  0  0  0  0  0  0
  181.7966   15.6329   43.4893 H   0  0  0  0  0  0  0  0  0  0  0  0
  182.4549   17.4058   44.6901 H   0  0  0  0  0  0  0  0  0  0  0  0
  182.1989   18.3843   43.1786 H   0  0  0  0  0  0  0  0  0  0  0  0
  179.7480   18.2440   44.4360 H   0  0  0  0  0  0  0  0  0  0  0  0
  178.5432   18.3626   45.8062 H   0  0  0  0  0  0  0  0  0  0  0  0
  176.5451   19.3912   46.9367 H   0  0  0  0  0  0  0  0  0  0  0  0
  178.8227   22.9821   47.5257 H   0  0  0  0  0  0  0  0  0  0  0  0
  1  2  1  0
  2  3  1  0
  3  4  1  0
  4  5  1  0
  5  6  2  0
  5  7  1  0
  7  8  2  0
  8  9  1  0
  9 10  2  0
 10 11  1  0
 10 12  1  0
 12 13  2  0
 13  7  1  0
  1 14  1  0
  1 15  1  0
  1 16  1  0
  2 17  1  0
  2 18  1  0
  3 19  1  0
  3 20  1  0
  4 21  1  0
  8 22  1  0
  9 23  1  0
 12 24  1  0
M  CHG  1   1   1
M  END
>  <meeko>  (9) 
{"is_sidechain": [false], "free_energy": -4.595, "intermolecular_energy": -5.673, "internal_energy": -0.14}

$$$$
