selegiline_out
     RDKit          3D

 32 32  0  0  0  0  0  0  0  0999 V2000
  178.5360   24.0910   47.3330 C   0  0  0  0  0  0  0  0  0  0  0  0
  177.6510   23.6480   48.0130 C   0  0  0  0  0  0  0  0  0  0  0  0
  176.5610   23.1110   48.8460 C   0  0  0  0  0  0  0  0  0  0  0  0
  176.5310   21.6390   48.8180 N   0  0  1  0  0  0  0  0  0  0  0  0
  175.4230   21.1180   49.6230 C   0  0  0  0  0  0  0  0  0  0  0  0
  176.5650   21.1130   47.4280 C   0  0  2  0  0  0  0  0  0  0  0  0
  175.1800   20.7920   46.8410 C   0  0  0  0  0  0  0  0  0  0  0  0
  177.5150   19.8880   47.3350 C   0  0  0  0  0  0  0  0  0  0  0  0
  178.9270   20.2410   46.9180 C   0  0  0  0  0  0  0  0  0  0  0  0
  179.8480   20.7290   47.8560 C   0  0  0  0  0  0  0  0  0  0  0  0
  181.1510   21.0450   47.4690 C   0  0  0  0  0  0  0  0  0  0  0  0
  181.5460   20.8770   46.1430 C   0  0  0  0  0  0  0  0  0  0  0  0
  180.6380   20.3960   45.2030 C   0  0  0  0  0  0  0  0  0  0  0  0
  179.3340   20.0790   45.5870 C   0  0  0  0  0  0  0  0  0  0  0  0
  179.3467   24.4968   46.7101 H   0  0  0  0  0  0  0  0  0  0  0  0
  176.7072   23.4452   49.8838 H   0  0  0  0  0  0  0  0  0  0  0  0
  175.6066   23.4819   48.4441 H   0  0  0  0  0  0  0  0  0  0  0  0
  177.3840   21.2910   49.2560 H   0  0  0  0  0  0  0  0  0  0  0  0
  175.6613   21.2301   50.6910 H   0  0  0  0  0  0  0  0  0  0  0  0
  174.5058   21.6792   49.3912 H   0  0  0  0  0  0  0  0  0  0  0  0
  175.2701   20.0536   49.3912 H   0  0  0  0  0  0  0  0  0  0  0  0
  176.9595   21.9279   46.8032 H   0  0  0  0  0  0  0  0  0  0  0  0
  174.4643   20.6261   47.6597 H   0  0  0  0  0  0  0  0  0  0  0  0
  174.8398   21.6351   46.2218 H   0  0  0  0  0  0  0  0  0  0  0  0
  175.2454   19.8852   46.2218 H   0  0  0  0  0  0  0  0  0  0  0  0
  177.5554   19.4045   48.3222 H   0  0  0  0  0  0  0  0  0  0  0  0
  177.1076   19.2244   46.5581 H   0  0  0  0  0  0  0  0  0  0  0  0
  179.5414   20.8636   48.9038 H   0  0  0  0  0  0  0  0  0  0  0  0
  181.8672   21.4271   48.2114 H   0  0  0  0  0  0  0  0  0  0  0  0
  182.5740   21.1241   45.8392 H   0  0  0  0  0  0  0  0  0  0  0  0
  180.9490   20.2656   44.1560 H   0  0  0  0  0  0  0  0  0  0  0  0
  178.6213   19.6996   44.8399 H   0  0  0  0  0  0  0  0  0  0  0  0
  1  2  3  0
  2  3  1  0
  3  4  1  0
  4  5  1  0
  4  6  1  0
  6  7  1  0
  6  8  1  0
  8  9  1  0
  9 10  2  0
 10 11  1  0
 11 12  2  0
 12 13  1  0
 13 14  2  0
 14  9  1  0
  1 15  1  0
  3 16  1  0
  3 17  1  0
  4 18  1  1
  5 19  1  0
  5 20  1  0
  5 21  1  0
  6 22  1  6
  7 23  1  0
  7 24  1  0
  7 25  1  0
  8 26  1  0
  8 27  1  0
 10 28  1  0
 11 29  1  0
 12 30  1  0
 13 31  1  0
 14 32  1  0
M  CHG  1   4   1
M  END
>  <meeko>  (1) 
{"is_sidechain": [false], "free_energy": -5.632, "intermolecular_energy": -6.949, "internal_energy": -0.879}

$$$$
selegiline_out
     RDKit          3D

 32 32  0  0  0  0  0  0  0  0999 V2000
  175.4320   18.1420   46.9710 C   0  0  0  0  0  0  0  0  0  0  0  0
  175.2280   19.3150   47.1360 C   0  0  0  0  0  0  0  0  0  0  0  0
  174.9730   20.7520   47.3330 C   0  0  0  0  0  0  0  0  0  0  0  0
  175.4060   21.2030   48.6670 N   0  0  1  0  0  0  0  0  0  0  0  0
  175.5200   20.0740   49.5940 C   0  0  0  0  0  0  0  0  0  0  0  0
  176.6260   22.0480   48.5940 C   0  0  2  0  0  0  0  0  0  0  0  0
  176.4240   23.4910   49.0850 C   0  0  0  0  0  0  0  0  0  0  0  0
  177.2200   22.0190   47.1590 C   0  0  0  0  0  0  0  0  0  0  0  0
  178.5490   21.3010   47.0630 C   0  0  0  0  0  0  0  0  0  0  0  0
  179.6860   21.8150   47.7010 C   0  0  0  0  0  0  0  0  0  0  0  0
  180.9070   21.1450   47.6170 C   0  0  0  0  0  0  0  0  0  0  0  0
  181.0040   19.9560   46.8950 C   0  0  0  0  0  0  0  0  0  0  0  0
  179.8800   19.4390   46.2540 C   0  0  0  0  0  0  0  0  0  0  0  0
  178.6580   20.1070   46.3370 C   0  0  0  0  0  0  0  0  0  0  0  0
  175.6187   17.0685   46.8200 H   0  0  0  0  0  0  0  0  0  0  0  0
  175.5232   21.3200   46.5684 H   0  0  0  0  0  0  0  0  0  0  0  0
  173.8899   20.9236   47.2472 H   0  0  0  0  0  0  0  0  0  0  0  0
  174.6820   21.8100   49.0520 H   0  0  0  0  0  0  0  0  0  0  0  0
  175.4826   20.4443   50.6291 H   0  0  0  0  0  0  0  0  0  0  0  0
  174.6879   19.3748   49.4244 H   0  0  0  0  0  0  0  0  0  0  0  0
  176.4751   19.5553   49.4244 H   0  0  0  0  0  0  0  0  0  0  0  0
  177.3469   21.6040   49.2963 H   0  0  0  0  0  0  0  0  0  0  0  0
  176.4217   23.5071   50.1849 H   0  0  0  0  0  0  0  0  0  0  0  0
  177.2423   24.1236   48.7107 H   0  0  0  0  0  0  0  0  0  0  0  0
  175.4634   23.8746   48.7107 H   0  0  0  0  0  0  0  0  0  0  0  0
  176.5029   21.5116   46.4969 H   0  0  0  0  0  0  0  0  0  0  0  0
  177.3980   23.0638   46.8645 H   0  0  0  0  0  0  0  0  0  0  0  0
  179.6154   22.7527   48.2717 H   0  0  0  0  0  0  0  0  0  0  0  0
  181.7944   21.5554   48.1211 H   0  0  0  0  0  0  0  0  0  0  0  0
  181.9664   19.4270   46.8316 H   0  0  0  0  0  0  0  0  0  0  0  0
  179.9563   18.5027   45.6817 H   0  0  0  0  0  0  0  0  0  0  0  0
  177.7740   19.6938   45.8292 H   0  0  0  0  0  0  0  0  0  0  0  0
  1  2  3  0
  2  3  1  0
  3  4  1  0
  4  5  1  0
  4  6  1  0
  6  7  1  0
  6  8  1  0
  8  9  1  0
  9 10  2  0
 10 11  1  0
 11 12  2  0
 12 13  1  0
 13 14  2  0
 14  9  1  0
  1 15  1  0
  3 16  1  0
  3 17  1  0
  4 18  1  1
  5 19  1  0
  5 20  1  0
  5 21  1  0
  6 22  1  1
  7 23  1  0
  7 24  1  0
  7 25  1  0
  8 26  1  0
  8 27  1  0
 10 28  1  0
 11 29  1  0
 12 30  1  0
 13 31  1  0
 14 32  1  0
M  CHG  1   4   1
M  END
>  <meeko>  (2) 
{"is_sidechain": [false], "free_energy": -5.488, "intermolecular_energy": -7.373, "internal_energy": -0.278}

$$$$
selegiline_out
     RDKit          3D

 32 32  0  0  0  0  0  0  0  0999 V2000
  175.4850   18.1410   46.9600 C   0  0  0  0  0  0  0  0  0  0  0  0
  175.2140   19.2900   47.1850 C   0  0  0  0  0  0  0  0  0  0  0  0
  174.8750   20.6980   47.4550 C   0  0  0  0  0  0  0  0  0  0  0  0
  175.4080   21.1450   48.7530 N   0  0  1  0  0  0  0  0  0  0  0  0
  175.6080   20.0110   49.6600 C   0  0  0  0  0  0  0  0  0  0  0  0
  176.6090   22.0040   48.5890 C   0  0  2  0  0  0  0  0  0  0  0  0
  176.4020   23.4670   49.0160 C   0  0  0  0  0  0  0  0  0  0  0  0
  177.1460   21.9130   47.1340 C   0  0  0  0  0  0  0  0  0  0  0  0
  178.5080   21.2600   47.0260 C   0  0  0  0  0  0  0  0  0  0  0  0
  178.6810   20.0900   46.2740 C   0  0  0  0  0  0  0  0  0  0  0  0
  179.9400   19.4960   46.1700 C   0  0  0  0  0  0  0  0  0  0  0  0
  181.0360   20.0650   46.8170 C   0  0  0  0  0  0  0  0  0  0  0  0
  180.8730   21.2260   47.5700 C   0  0  0  0  0  0  0  0  0  0  0  0
  179.6160   21.8210   47.6750 C   0  0  0  0  0  0  0  0  0  0  0  0
  175.7330   17.0893   46.7541 H   0  0  0  0  0  0  0  0  0  0  0  0
  175.3005   21.3266   46.6589 H   0  0  0  0  0  0  0  0  0  0  0  0
  173.7791   20.7885   47.4837 H   0  0  0  0  0  0  0  0  0  0  0  0
  174.7110   21.7410   49.1990 H   0  0  0  0  0  0  0  0  0  0  0  0
  175.5466   20.3593   50.7016 H   0  0  0  0  0  0  0  0  0  0  0  0
  174.8293   19.2554   49.4795 H   0  0  0  0  0  0  0  0  0  0  0  0
  176.5983   19.5673   49.4795 H   0  0  0  0  0  0  0  0  0  0  0  0
  177.3644   21.6063   49.2827 H   0  0  0  0  0  0  0  0  0  0  0  0
  176.3930   23.5307   50.1141 H   0  0  0  0  0  0  0  0  0  0  0  0
  177.2218   24.0841   48.6196 H   0  0  0  0  0  0  0  0  0  0  0  0
  175.4432   23.8325   48.6196 H   0  0  0  0  0  0  0  0  0  0  0  0
  176.4319   21.3271   46.5366 H   0  0  0  0  0  0  0  0  0  0  0  0
  177.2546   22.9443   46.7670 H   0  0  0  0  0  0  0  0  0  0  0  0
  177.8191   19.6368   45.7624 H   0  0  0  0  0  0  0  0  0  0  0  0
  180.0674   18.5783   45.5771 H   0  0  0  0  0  0  0  0  0  0  0  0
  182.0284   19.5979   46.7331 H   0  0  0  0  0  0  0  0  0  0  0  0
  181.7371   21.6740   48.0825 H   0  0  0  0  0  0  0  0  0  0  0  0
  179.4935   22.7371   48.2715 H   0  0  0  0  0  0  0  0  0  0  0  0
  1  2  3  0
  2  3  1  0
  3  4  1  0
  4  5  1  0
  4  6  1  0
  6  7  1  0
  6  8  1  0
  8  9  1  0
  9 10  2  0
 10 11  1  0
 11 12  2  0
 12 13  1  0
 13 14  2  0
 14  9  1  0
  1 15  1  0
  3 16  1  0
  3 17  1  0
  4 18  1  1
  5 19  1  0
  5 20  1  0
  5 21  1  0
  6 22  1  1
  7 23  1  0
  7 24  1  0
  7 25  1  0
  8 26  1  0
  8 27  1  0
 10 28  1  0
 11 29  1  0
 12 30  1  0
 13 31  1  0
 14 32  1  0
M  CHG  1   4   1
M  END
>  <meeko>  (3) 
{"is_sidechain": [false], "free_energy": -5.465, "intermolecular_energy": -7.358, "internal_energy": -0.264}

$$$$
selegiline_out
     RDKit          3D

 32 32  0  0  0  0  0  0  0  0999 V2000
  178.3760   23.8380   47.4910 C   0  0  0  0  0  0  0  0  0  0  0  0
  179.0920   22.8770   47.5680 C   0  0  0  0  0  0  0  0  0  0  0  0
  179.9690   21.6970   47.6700 C   0  0  0  0  0  0  0  0  0  0  0  0
  180.0290   20.9540   46.4000 N   0  0  1  0  0  0  0  0  0  0  0  0
  181.4120   20.8010   45.9430 C   0  0  0  0  0  0  0  0  0  0  0  0
  179.2730   19.6760   46.4730 C   0  0  2  0  0  0  0  0  0  0  0  0
  180.0100   18.4720   45.8620 C   0  0  0  0  0  0  0  0  0  0  0  0
  177.8590   19.8460   45.8530 C   0  0  0  0  0  0  0  0  0  0  0  0
  176.7810   20.1550   46.8700 C   0  0  0  0  0  0  0  0  0  0  0  0
  176.6480   19.3780   48.0290 C   0  0  0  0  0  0  0  0  0  0  0  0
  175.6570   19.6720   48.9670 C   0  0  0  0  0  0  0  0  0  0  0  0
  174.7910   20.7440   48.7570 C   0  0  0  0  0  0  0  0  0  0  0  0
  174.9130   21.5200   47.6060 C   0  0  0  0  0  0  0  0  0  0  0  0
  175.9020   21.2280   46.6660 C   0  0  0  0  0  0  0  0  0  0  0  0
  177.7202   24.7183   47.4205 H   0  0  0  0  0  0  0  0  0  0  0  0
  180.9831   22.0282   47.9379 H   0  0  0  0  0  0  0  0  0  0  0  0
  179.5574   21.0283   48.4404 H   0  0  0  0  0  0  0  0  0  0  0  0
  179.5550   21.5040   45.6830 H   0  0  0  0  0  0  0  0  0  0  0  0
  182.0799   20.7271   46.8139 H   0  0  0  0  0  0  0  0  0  0  0  0
  181.4987   19.8878   45.3359 H   0  0  0  0  0  0  0  0  0  0  0  0
  181.6962   21.6732   45.3359 H   0  0  0  0  0  0  0  0  0  0  0  0
  179.1751   19.4402   47.5430 H   0  0  0  0  0  0  0  0  0  0  0  0
  180.4007   17.8337   46.6681 H   0  0  0  0  0  0  0  0  0  0  0  0
  179.3121   17.8918   45.2405 H   0  0  0  0  0  0  0  0  0  0  0  0
  180.8442   18.8296   45.2405 H   0  0  0  0  0  0  0  0  0  0  0  0
  177.8959   20.6698   45.1250 H   0  0  0  0  0  0  0  0  0  0  0  0
  177.5950   18.8852   45.3870 H   0  0  0  0  0  0  0  0  0  0  0  0
  177.3289   18.5312   48.2004 H   0  0  0  0  0  0  0  0  0  0  0  0
  175.5592   19.0567   49.8735 H   0  0  0  0  0  0  0  0  0  0  0  0
  174.0127   20.9770   49.4986 H   0  0  0  0  0  0  0  0  0  0  0  0
  174.2283   22.3644   47.4381 H   0  0  0  0  0  0  0  0  0  0  0  0
  175.9926   21.8437   45.7590 H   0  0  0  0  0  0  0  0  0  0  0  0
  1  2  3  0
  2  3  1  0
  3  4  1  0
  4  5  1  0
  4  6  1  0
  6  7  1  0
  6  8  1  0
  8  9  1  0
  9 10  2  0
 10 11  1  0
 11 12  2  0
 12 13  1  0
 13 14  2  0
 14  9  1  0
  1 15  1  0
  3 16  1  0
  3 17  1  0
  4 18  1  6
  5 19  1  0
  5 20  1  0
  5 21  1  0
  6 22  1  1
  7 23  1  0
  7 24  1  0
  7 25  1  0
  8 26  1  0
  8 27  1  0
 10 28  1  0
 11 29  1  0
 12 30  1  0
 13 31  1  0
 14 32  1  0
M  CHG  1   4   1
M  END
>  <meeko>  (4) 
{"is_sidechain": [false], "free_energy": -5.393, "intermolecular_energy": -6.701, "internal_energy": -0.832}

$$$$
selegiline_out
     RDKit          3D

 32 32  0  0  0  0  0  0  0  0999 V2000
  183.8150   22.8000   46.0500 C   0  0  0  0  0  0  0  0  0  0  0  0
  183.0630   21.8850   45.8540 C   0  0  0  0  0  0  0  0  0  0  0  0
  182.1440   20.7600   45.6060 C   0  0  0  0  0  0  0  0  0  0  0  0
  181.4380   20.3560   46.8340 N   0  0  1  0  0  0  0  0  0  0  0  0
  181.1910   21.5090   47.7040 C   0  0  0  0  0  0  0  0  0  0  0  0
  180.2200   19.5580   46.5310 C   0  0  2  0  0  0  0  0  0  0  0  0
  180.4210   18.4900   45.4440 C   0  0  0  0  0  0  0  0  0  0  0  0
  179.0300   20.4960   46.1890 C   0  0  0  0  0  0  0  0  0  0  0  0
  177.7630   20.1760   46.9530 C   0  0  0  0  0  0  0  0  0  0  0  0
  176.8850   19.1830   46.4980 C   0  0  0  0  0  0  0  0  0  0  0  0
  175.7220   18.8870   47.2100 C   0  0  0  0  0  0  0  0  0  0  0  0
  175.4260   19.5790   48.3830 C   0  0  0  0  0  0  0  0  0  0  0  0
  176.2900   20.5700   48.8430 C   0  0  0  0  0  0  0  0  0  0  0  0
  177.4530   20.8680   48.1320 C   0  0  0  0  0  0  0  0  0  0  0  0
  184.5041   23.6384   46.2296 H   0  0  0  0  0  0  0  0  0  0  0  0
  181.4031   21.0638   44.8518 H   0  0  0  0  0  0  0  0  0  0  0  0
  182.7363   19.9034   45.2519 H   0  0  0  0  0  0  0  0  0  0  0  0
  182.0440   19.7290   47.3630 H   0  0  0  0  0  0  0  0  0  0  0  0
  181.2582   21.1954   48.7562 H   0  0  0  0  0  0  0  0  0  0  0  0
  181.9429   22.2867   47.5044 H   0  0  0  0  0  0  0  0  0  0  0  0
  180.1865   21.9104   47.5044 H   0  0  0  0  0  0  0  0  0  0  0  0
  179.9877   18.9943   47.4466 H   0  0  0  0  0  0  0  0  0  0  0  0
  180.6046   17.5145   45.9180 H   0  0  0  0  0  0  0  0  0  0  0  0
  179.5185   18.4295   44.8181 H   0  0  0  0  0  0  0  0  0  0  0  0
  181.2838   18.7617   44.8181 H   0  0  0  0  0  0  0  0  0  0  0  0
  179.3245   21.5298   46.4227 H   0  0  0  0  0  0  0  0  0  0  0  0
  178.8058   20.3542   45.1215 H   0  0  0  0  0  0  0  0  0  0  0  0
  177.1142   18.6332   45.5733 H   0  0  0  0  0  0  0  0  0  0  0  0
  175.0380   18.1066   46.8451 H   0  0  0  0  0  0  0  0  0  0  0  0
  174.5105   19.3427   48.9452 H   0  0  0  0  0  0  0  0  0  0  0  0
  176.0553   21.1181   49.7674 H   0  0  0  0  0  0  0  0  0  0  0  0
  178.1317   21.6518   48.4994 H   0  0  0  0  0  0  0  0  0  0  0  0
  1  2  3  0
  2  3  1  0
  3  4  1  0
  4  5  1  0
  4  6  1  0
  6  7  1  0
  6  8  1  0
  8  9  1  0
  9 10  2  0
 10 11  1  0
 11 12  2  0
 12 13  1  0
 13 14  2  0
 14  9  1  0
  1 15  1  0
  3 16  1  0
  3 17  1  0
  4 18  1  1
  5 19  1  0
  5 20  1  0
  5 21  1  0
  6 22  1  1
  7 23  1  0
  7 24  1  0
  7 25  1  0
  8 26  1  0
  8 27  1  0
 10 28  1  0
 11 29  1  0
 12 30  1  0
 13 31  1  0
 14 32  1  0
M  CHG  1   4   1
M  END
>  <meeko>  (5) 
{"is_sidechain": [false], "free_energy": -5.096, "intermolecular_energy": -6.909, "internal_energy": -0.258}

$$$$
selegiline_out
     RDKit          3D

 32 32  0  0  0  0  0  0  0  0999 V2000
  176.3190   20.6080   50.4330 C   0  0  0  0  0  0  0  0  0  0  0  0
  175.8210   20.1270   49.4510 C   0  0  0  0  0  0  0  0  0  0  0  0
  175.2050   19.5410   48.2480 C   0  0  0  0  0  0  0  0  0  0  0  0
  176.2070   18.8910   47.3860 N   0  0  1  0  0  0  0  0  0  0  0  0
  175.5640   18.1260   46.3140 C   0  0  0  0  0  0  0  0  0  0  0  0
  177.2310   19.8560   46.9080 C   0  0  2  0  0  0  0  0  0  0  0  0
  176.6990   20.8960   45.9080 C   0  0  0  0  0  0  0  0  0  0  0  0
  178.4610   19.1000   46.3340 C   0  0  0  0  0  0  0  0  0  0  0  0
  179.7590   19.8700   46.4500 C   0  0  0  0  0  0  0  0  0  0  0  0
  180.0210   20.6630   47.5760 C   0  0  0  0  0  0  0  0  0  0  0  0
  181.2230   21.3650   47.6820 C   0  0  0  0  0  0  0  0  0  0  0  0
  182.1730   21.2810   46.6660 C   0  0  0  0  0  0  0  0  0  0  0  0
  181.9210   20.4980   45.5410 C   0  0  0  0  0  0  0  0  0  0  0  0
  180.7200   19.7960   45.4320 C   0  0  0  0  0  0  0  0  0  0  0  0
  176.7749   21.0484   51.3320 H   0  0  0  0  0  0  0  0  0  0  0  0
  174.4607   18.7923   48.5570 H   0  0  0  0  0  0  0  0  0  0  0  0
  174.7326   20.3520   47.6743 H   0  0  0  0  0  0  0  0  0  0  0  0
  176.7200   18.2110   47.9470 H   0  0  0  0  0  0  0  0  0  0  0  0
  174.9150   17.3539   46.7530 H   0  0  0  0  0  0  0  0  0  0  0  0
  174.9596   18.8029   45.6922 H   0  0  0  0  0  0  0  0  0  0  0  0
  176.3347   17.6471   45.6922 H   0  0  0  0  0  0  0  0  0  0  0  0
  177.5385   20.4368   47.7901 H   0  0  0  0  0  0  0  0  0  0  0  0
  176.2650   21.7444   46.4574 H   0  0  0  0  0  0  0  0  0  0  0  0
  177.5253   21.2528   45.2756 H   0  0  0  0  0  0  0  0  0  0  0  0
  175.9261   20.4347   45.2756 H   0  0  0  0  0  0  0  0  0  0  0  0
  178.5706   18.1511   46.8794 H   0  0  0  0  0  0  0  0  0  0  0  0
  178.2725   18.9489   45.2609 H   0  0  0  0  0  0  0  0  0  0  0  0
  179.2747   20.7325   48.3811 H   0  0  0  0  0  0  0  0  0  0  0  0
  181.4205   21.9853   48.5687 H   0  0  0  0  0  0  0  0  0  0  0  0
  183.1210   21.8323   46.7519 H   0  0  0  0  0  0  0  0  0  0  0  0
  182.6699   20.4333   44.7379 H   0  0  0  0  0  0  0  0  0  0  0  0
  180.5260   19.1804   44.5413 H   0  0  0  0  0  0  0  0  0  0  0  0
  1  2  3  0
  2  3  1  0
  3  4  1  0
  4  5  1  0
  4  6  1  0
  6  7  1  0
  6  8  1  0
  8  9  1  0
  9 10  2  0
 10 11  1  0
 11 12  2  0
 12 13  1  0
 13 14  2  0
 14  9  1  0
  1 15  1  0
  3 16  1  0
  3 17  1  0
  4 18  1  1
  5 19  1  0
  5 20  1  0
  5 21  1  0
  6 22  1  1
  7 23  1  0
  7 24  1  0
  7 25  1  0
  8 26  1  0
  8 27  1  0
 10 28  1  0
 11 29  1  0
 12 30  1  0
 13 31  1  0
 14 32  1  0
M  CHG  1   4   1
M  END
>  <meeko>  (6) 
{"is_sidechain": [false], "free_energy": -5.04, "intermolecular_energy": -6.545, "internal_energy": -0.553}

$$$$
selegiline_out
     RDKit          3D

 32 32  0  0  0  0  0  0  0  0999 V2000
  183.8840   22.5510   45.3500 C   0  0  0  0  0  0  0  0  0  0  0  0
  183.0860   21.8130   45.8630 C   0  0  0  0  0  0  0  0  0  0  0  0
  182.1110   20.9100   46.4980 C   0  0  0  0  0  0  0  0  0  0  0  0
  180.9010   20.7520   45.6750 N   0  0  1  0  0  0  0  0  0  0  0  0
  180.8310   19.4100   45.0920 C   0  0  0  0  0  0  0  0  0  0  0  0
  179.6750   21.1520   46.4140 C   0  0  2  0  0  0  0  0  0  0  0  0
  179.7780   20.9890   47.9400 C   0  0  0  0  0  0  0  0  0  0  0  0
  178.4340   20.4060   45.8500 C   0  0  0  0  0  0  0  0  0  0  0  0
  177.2290   20.4490   46.7650 C   0  0  0  0  0  0  0  0  0  0  0  0
  176.6410   21.6710   47.1160 C   0  0  0  0  0  0  0  0  0  0  0  0
  175.5250   21.7040   47.9530 C   0  0  0  0  0  0  0  0  0  0  0  0
  174.9860   20.5170   48.4470 C   0  0  0  0  0  0  0  0  0  0  0  0
  175.5650   19.2970   48.1060 C   0  0  0  0  0  0  0  0  0  0  0  0
  176.6810   19.2610   47.2700 C   0  0  0  0  0  0  0  0  0  0  0  0
  184.6143   23.2264   44.8805 H   0  0  0  0  0  0  0  0  0  0  0  0
  182.5775   19.9239   46.6395 H   0  0  0  0  0  0  0  0  0  0  0  0
  181.8154   21.3475   47.4630 H   0  0  0  0  0  0  0  0  0  0  0  0
  180.9610   21.3970   44.8880 H   0  0  0  0  0  0  0  0  0  0  0  0
  180.7920   18.6619   45.8975 H   0  0  0  0  0  0  0  0  0  0  0  0
  179.9273   19.3270   44.4704 H   0  0  0  0  0  0  0  0  0  0  0  0
  181.7211   19.2334   44.4704 H   0  0  0  0  0  0  0  0  0  0  0  0
  179.5572   22.2329   46.2472 H   0  0  0  0  0  0  0  0  0  0  0  0
  179.2529   21.8200   48.4338 H   0  0  0  0  0  0  0  0  0  0  0  0
  179.3181   20.0355   48.2388 H   0  0  0  0  0  0  0  0  0  0  0  0
  180.8366   20.9950   48.2388 H   0  0  0  0  0  0  0  0  0  0  0  0
  178.1579   20.8678   44.8906 H   0  0  0  0  0  0  0  0  0  0  0  0
  178.7171   19.3486   45.7415 H   0  0  0  0  0  0  0  0  0  0  0  0
  177.0618   22.6109   46.7292 H   0  0  0  0  0  0  0  0  0  0  0  0
  175.0698   22.6682   48.2235 H   0  0  0  0  0  0  0  0  0  0  0  0
  174.1049   20.5439   49.1050 H   0  0  0  0  0  0  0  0  0  0  0  0
  175.1414   18.3601   48.4967 H   0  0  0  0  0  0  0  0  0  0  0  0
  177.1342   18.2944   47.0051 H   0  0  0  0  0  0  0  0  0  0  0  0
  1  2  3  0
  2  3  1  0
  3  4  1  0
  4  5  1  0
  4  6  1  0
  6  7  1  0
  6  8  1  0
  8  9  1  0
  9 10  2  0
 10 11  1  0
 11 12  2  0
 12 13  1  0
 13 14  2  0
 14  9  1  0
  1 15  1  0
  3 16  1  0
  3 17  1  0
  4 18  1  6
  5 19  1  0
  5 20  1  0
  5 21  1  0
  6 22  1  1
  7 23  1  0
  7 24  1  0
  7 25  1  0
  8 26  1  0
  8 27  1  0
 10 28  1  0
 11 29  1  0
 12 30  1  0
 13 31  1  0
 14 32  1  0
M  CHG  1   4   1
M  END
>  <meeko>  (7) 
{"is_sidechain": [false], "free_energy": -4.982, "intermolecular_energy": -6.797, "internal_energy": -0.229}

$$$$
selegiline_out
     RDKit          3D

 32 32  0  0  0  0  0  0  0  0999 V2000
  180.9280   17.8310   44.2880 C   0  0  0  0  0  0  0  0  0  0  0  0
  181.2050   18.7930   44.9530 C   0  0  0  0  0  0  0  0  0  0  0  0
  181.5470   19.9750   45.7630 C   0  0  0  0  0  0  0  0  0  0  0  0
  180.5630   20.2030   46.8330 N   0  0  1  0  0  0  0  0  0  0  0  0
  181.2220   20.3620   48.1320 C   0  0  0  0  0  0  0  0  0  0  0  0
  179.6260   21.3070   46.4940 C   0  0  2  0  0  0  0  0  0  0  0  0
  179.2590   22.2100   47.6830 C   0  0  0  0  0  0  0  0  0  0  0  0
  178.3550   20.7450   45.8000 C   0  0  0  0  0  0  0  0  0  0  0  0
  177.1800   20.5600   46.7350 C   0  0  0  0  0  0  0  0  0  0  0  0
  176.9720   19.3370   47.3880 C   0  0  0  0  0  0  0  0  0  0  0  0
  175.8920   19.1740   48.2560 C   0  0  0  0  0  0  0  0  0  0  0  0
  175.0100   20.2300   48.4810 C   0  0  0  0  0  0  0  0  0  0  0  0
  175.2070   21.4490   47.8350 C   0  0  0  0  0  0  0  0  0  0  0  0
  176.2850   21.6140   46.9660 C   0  0  0  0  0  0  0  0  0  0  0  0
  180.6745   16.9505   43.6793 H   0  0  0  0  0  0  0  0  0  0  0  0
  182.5377   19.8225   46.2160 H   0  0  0  0  0  0  0  0  0  0  0  0
  181.5472   20.8552   45.1033 H   0  0  0  0  0  0  0  0  0  0  0  0
  179.9780   19.3720   46.9150 H   0  0  0  0  0  0  0  0  0  0  0  0
  180.4931   20.1861   48.9369 H   0  0  0  0  0  0  0  0  0  0  0  0
  182.0445   19.6365   48.2172 H   0  0  0  0  0  0  0  0  0  0  0  0
  181.6231   21.3827   48.2172 H   0  0  0  0  0  0  0  0  0  0  0  0
  180.1658   21.9605   45.7928 H   0  0  0  0  0  0  0  0  0  0  0  0
  179.4735   21.6823   48.6241 H   0  0  0  0  0  0  0  0  0  0  0  0
  179.8525   23.1350   47.6378 H   0  0  0  0  0  0  0  0  0  0  0  0
  178.1884   22.4587   47.6378 H   0  0  0  0  0  0  0  0  0  0  0  0
  178.0577   21.4427   45.0032 H   0  0  0  0  0  0  0  0  0  0  0  0
  178.6156   19.7492   45.4120 H   0  0  0  0  0  0  0  0  0  0  0  0
  177.6649   18.5004   47.2148 H   0  0  0  0  0  0  0  0  0  0  0  0
  175.7361   18.2107   48.7637 H   0  0  0  0  0  0  0  0  0  0  0  0
  174.1600   20.1012   49.1673 H   0  0  0  0  0  0  0  0  0  0  0  0
  174.5110   22.2824   48.0109 H   0  0  0  0  0  0  0  0  0  0  0  0
  176.4342   22.5782   46.4580 H   0  0  0  0  0  0  0  0  0  0  0  0
  1  2  3  0
  2  3  1  0
  3  4  1  0
  4  5  1  0
  4  6  1  0
  6  7  1  0
  6  8  1  0
  8  9  1  0
  9 10  2  0
 10 11  1  0
 11 12  2  0
 12 13  1  0
 13 14  2  0
 14  9  1  0
  1 15  1  0
  3 16  1  0
  3 17  1  0
  4 18  1  1
  5 19  1  0
  5 20  1  0
  5 21  1  0
  6 22  1  6
  7 23  1  0
  7 24  1  0
  7 25  1  0
  8 26  1  0
  8 27  1  0
 10 28  1  0
 11 29  1  0
 12 30  1  0
 13 31  1  0
 14 32  1  0
M  CHG  1   4   1
M  END
>  <meeko>  (8) 
{"is_sidechain": [false], "free_energy": -4.957, "intermolecular_energy": -6.855, "internal_energy": -0.14}

$$$$
selegiline_out
     RDKit          3D

 32 32  0  0  0  0  0  0  0  0999 V2000
  175.5480   18.5140   47.1560 C   0  0  0  0  0  0  0  0  0  0  0  0
  176.4430   19.0280   46.5420 C   0  0  0  0  0  0  0  0  0  0  0  0
  177.5360   19.6630   45.7850 C   0  0  0  0  0  0  0  0  0  0  0  0
  178.8350   19.4860   46.4550 N   0  0  1  0  0  0  0  0  0  0  0  0
  179.6270   18.4390   45.8050 C   0  0  0  0  0  0  0  0  0  0  0  0
  179.5540   20.7780   46.6110 C   0  0  2  0  0  0  0  0  0  0  0  0
  180.9970   20.7640   46.0780 C   0  0  0  0  0  0  0  0  0  0  0  0
  179.5040   21.2510   48.0900 C   0  0  0  0  0  0  0  0  0  0  0  0
  178.1920   21.8990   48.4780 C   0  0  0  0  0  0  0  0  0  0  0  0
  177.2330   21.1870   49.2110 C   0  0  0  0  0  0  0  0  0  0  0  0
  176.0290   21.7920   49.5740 C   0  0  0  0  0  0  0  0  0  0  0  0
  175.7720   23.1120   49.2090 C   0  0  0  0  0  0  0  0  0  0  0  0
  176.7170   23.8280   48.4780 C   0  0  0  0  0  0  0  0  0  0  0  0
  177.9220   23.2250   48.1130 C   0  0  0  0  0  0  0  0  0  0  0  0
  174.7282   18.0432   47.7184 H   0  0  0  0  0  0  0  0  0  0  0  0
  177.5864   19.2104   44.7837 H   0  0  0  0  0  0  0  0  0  0  0  0
  177.3274   20.7410   45.7194 H   0  0  0  0  0  0  0  0  0  0  0  0
  178.6640   19.1590   47.4060 H   0  0  0  0  0  0  0  0  0  0  0  0
  180.1028   17.8099   46.5717 H   0  0  0  0  0  0  0  0  0  0  0  0
  178.9701   17.8186   45.1776 H   0  0  0  0  0  0  0  0  0  0  0  0
  180.4027   18.9023   45.1776 H   0  0  0  0  0  0  0  0  0  0  0  0
  179.0205   21.5028   45.9785 H   0  0  0  0  0  0  0  0  0  0  0  0
  181.7002   20.7572   46.9238 H   0  0  0  0  0  0  0  0  0  0  0  0
  181.1526   19.8643   45.4645 H   0  0  0  0  0  0  0  0  0  0  0  0
  181.1700   21.6605   45.4645 H   0  0  0  0  0  0  0  0  0  0  0  0
  179.6655   20.3780   48.7394 H   0  0  0  0  0  0  0  0  0  0  0  0
  180.2871   22.0141   48.2099 H   0  0  0  0  0  0  0  0  0  0  0  0
  177.4305   20.1448   49.5020 H   0  0  0  0  0  0  0  0  0  0  0  0
  175.2816   21.2259   50.1492 H   0  0  0  0  0  0  0  0  0  0  0  0
  174.8235   23.5882   49.4980 H   0  0  0  0  0  0  0  0  0  0  0  0
  176.5136   24.8694   48.1881 H   0  0  0  0  0  0  0  0  0  0  0  0
  178.6647   23.7945   47.5350 H   0  0  0  0  0  0  0  0  0  0  0  0
  1  2  3  0
  2  3  1  0
  3  4  1  0
  4  5  1  0
  4  6  1  0
  6  7  1  0
  6  8  1  0
  8  9  1  0
  9 10  2  0
 10 11  1  0
 11 12  2  0
 12 13  1  0
 13 14  2  0
 14  9  1  0
  1 15  1  0
  3 16  1  0
  3 17  1  0
  4 18  1  1
  5 19  1  0
  5 20  1  0
  5 21  1  0
  6 22  1  6
  7 23  1  0
  7 24  1  0
  7 25  1  0
  8 26  1  0
  8 27  1  0
 10 28  1  0
 11 29  1  0
 12 30  1  0
 13 31  1  0
 14 32  1  0
M  CHG  1   4   1
M  END
>  <meeko>  (9) 
{"is_sidechain": [false], "free_energy": -4.811, "intermolecular_energy": -6.143, "internal_energy": -0.672}

$$$$
