VP7_out
     RDKit          3D

 45 48  0  0  0  0  0  0  0  0999 V2000
  180.5930   14.3430   43.6520 C   0  0  0  0  0  0  0  0  0  0  0  0
  181.3180   15.4830   42.9400 C   0  0  0  0  0  0  0  0  0  0  0  0
  180.7880   15.6550   41.5180 C   0  0  0  0  0  0  0  0  0  0  0  0
  182.7020   15.1420   42.8470 O   0  0  0  0  0  0  0  0  0  0  0  0
  181.1840   16.7360   43.6980 C   0  0  0  0  0  0  0  0  0  0  0  0
  181.0750   17.7550   44.3260 C   0  0  0  0  0  0  0  0  0  0  0  0
  180.9420   18.9660   45.0770 C   0  0  0  0  0  0  0  0  0  0  0  0
  182.0030   19.8660   45.1350 C   0  0  0  0  0  0  0  0  0  0  0  0
  181.8980   21.0520   45.8670 C   0  0  0  0  0  0  0  0  0  0  0  0
  180.6910   21.2980   46.5340 C   0  0  0  0  0  0  0  0  0  0  0  0
  180.3240   22.3600   47.3170 N   0  0  0  0  0  0  0  0  0  0  0  0
  179.0440   22.2090   47.8040 C   0  0  0  0  0  0  0  0  0  0  0  0
  178.5440   21.0120   47.2950 C   0  0  0  0  0  0  0  0  0  0  0  0
  179.6040   20.4300   46.4970 C   0  0  0  0  0  0  0  0  0  0  0  0
  179.7450   19.2350   45.7520 C   0  0  0  0  0  0  0  0  0  0  0  0
  177.2020   20.4570   47.5260 C   0  0  0  0  0  0  0  0  0  0  0  0
  176.8120   19.5660   46.5850 N   0  0  0  0  0  0  0  0  0  0  0  0
  175.6290   18.9750   46.7280 C   0  0  0  0  0  0  0  0  0  0  0  0
  175.2390   18.0830   45.7510 N   0  0  0  0  0  0  0  0  0  0  0  0
  174.7760   19.2190   47.7180 N   0  0  0  0  0  0  0  0  0  0  0  0
  175.1790   20.1150   48.6340 C   0  0  0  0  0  0  0  0  0  0  0  0
  176.3890   20.7880   48.5960 C   0  0  0  0  0  0  0  0  0  0  0  0
  176.7150   21.7840   49.6650 C   0  0  0  0  0  0  0  0  0  0  0  0
  177.0500   23.1460   49.0810 C   0  0  0  0  0  0  0  0  0  0  0  0
  178.5190   23.2680   48.7140 C   0  0  0  0  0  0  0  0  0  0  0  0
  180.6784   14.4773   44.7404 H   0  0  0  0  0  0  0  0  0  0  0  0
  179.5313   14.3473   43.3642 H   0  0  0  0  0  0  0  0  0  0  0  0
  181.0471   13.3833   43.3642 H   0  0  0  0  0  0  0  0  0  0  0  0
  179.7423   15.9944   41.5550 H   0  0  0  0  0  0  0  0  0  0  0  0
  181.3972   16.4015   40.9874 H   0  0  0  0  0  0  0  0  0  0  0  0
  180.8427   14.6930   40.9874 H   0  0  0  0  0  0  0  0  0  0  0  0
  183.0790   15.0750   43.7380 H   0  0  0  0  0  0  0  0  0  0  0  0
  182.9360   19.6406   44.5977 H   0  0  0  0  0  0  0  0  0  0  0  0
  182.7329   21.7664   45.9175 H   0  0  0  0  0  0  0  0  0  0  0  0
  180.9030   23.1340   47.5090 H   0  0  0  0  0  0  0  0  0  0  0  0
  178.9133   18.5167   45.7031 H   0  0  0  0  0  0  0  0  0  0  0  0
  174.3220   18.1150   45.3930 H   0  0  0  0  0  0  0  0  0  0  0  0
  175.8770   17.4140   45.4130 H   0  0  0  0  0  0  0  0  0  0  0  0
  174.5006   20.3293   49.4730 H   0  0  0  0  0  0  0  0  0  0  0  0
  175.8474   21.8864   50.3334 H   0  0  0  0  0  0  0  0  0  0  0  0
  177.5957   21.4208   50.2150 H   0  0  0  0  0  0  0  0  0  0  0  0
  176.4447   23.3018   48.1758 H   0  0  0  0  0  0  0  0  0  0  0  0
  176.8292   23.9048   49.8461 H   0  0  0  0  0  0  0  0  0  0  0  0
  178.6656   24.2408   48.2219 H   0  0  0  0  0  0  0  0  0  0  0  0
  179.0756   23.1592   49.6565 H   0  0  0  0  0  0  0  0  0  0  0  0
  1  2  1  0
  2  3  1  0
  2  4  1  0
  2  5  1  0
  5  6  3  0
  6  7  1  0
  7  8  2  0
  8  9  1  0
  9 10  2  0
 10 11  1  0
 11 12  1  0
 12 13  2  0
 13 14  1  0
 14 15  2  0
 13 16  1  0
 16 17  2  0
 17 18  1  0
 18 19  1  0
 18 20  2  0
 20 21  1  0
 21 22  2  0
 22 23  1  0
 23 24  1  0
 24 25  1  0
 15  7  1  0
 22 16  1  0
 14 10  1  0
 25 12  1  0
  1 26  1  0
  1 27  1  0
  1 28  1  0
  3 29  1  0
  3 30  1  0
  3 31  1  0
  4 32  1  0
  8 33  1  0
  9 34  1  0
 11 35  1  0
 15 36  1  0
 19 37  1  0
 19 38  1  0
 21 39  1  0
 23 40  1  0
 23 41  1  0
 24 42  1  0
 24 43  1  0
 25 44  1  0
 25 45  1  0
M  END
>  <meeko>  (1) 
{"is_sidechain": [false], "free_energy": -8.829, "intermolecular_energy": -11.926, "internal_energy": 0.708}

$$$$
VP7_out
     RDKit          3D

 45 48  0  0  0  0  0  0  0  0999 V2000
  185.7710   22.5980   44.2240 C   0  0  0  0  0  0  0  0  0  0  0  0
  184.9360   23.0950   45.4020 C   0  0  0  0  0  0  0  0  0  0  0  0
  184.5550   24.5620   45.2130 C   0  0  0  0  0  0  0  0  0  0  0  0
  185.7340   23.0050   46.5830 O   0  0  0  0  0  0  0  0  0  0  0  0
  183.7340   22.2650   45.5720 C   0  0  0  0  0  0  0  0  0  0  0  0
  182.7560   21.5790   45.7080 C   0  0  0  0  0  0  0  0  0  0  0  0
  181.5880   20.7690   45.8710 C   0  0  0  0  0  0  0  0  0  0  0  0
  181.5550   19.4850   45.3320 C   0  0  0  0  0  0  0  0  0  0  0  0
  180.4230   18.6770   45.4730 C   0  0  0  0  0  0  0  0  0  0  0  0
  179.3320   19.2050   46.1750 C   0  0  0  0  0  0  0  0  0  0  0  0
  178.1140   18.6440   46.4510 N   0  0  0  0  0  0  0  0  0  0  0  0
  177.3090   19.5100   47.1580 C   0  0  0  0  0  0  0  0  0  0  0  0
  178.0420   20.6750   47.3770 C   0  0  0  0  0  0  0  0  0  0  0  0
  179.3250   20.4790   46.7350 C   0  0  0  0  0  0  0  0  0  0  0  0
  180.4850   21.2740   46.5690 C   0  0  0  0  0  0  0  0  0  0  0  0
  177.5920   21.8640   48.1160 C   0  0  0  0  0  0  0  0  0  0  0  0
  178.6060   22.6400   48.5670 N   0  0  0  0  0  0  0  0  0  0  0  0
  178.3010   23.7630   49.2110 C   0  0  0  0  0  0  0  0  0  0  0  0
  179.3450   24.5330   49.6800 N   0  0  0  0  0  0  0  0  0  0  0  0
  177.0650   24.1710   49.4780 N   0  0  0  0  0  0  0  0  0  0  0  0
  176.0750   23.3800   49.0310 C   0  0  0  0  0  0  0  0  0  0  0  0
  176.2680   22.1930   48.3440 C   0  0  0  0  0  0  0  0  0  0  0  0
  175.0820   21.3860   47.9170 C   0  0  0  0  0  0  0  0  0  0  0  0
  175.1530   19.9590   48.4380 C   0  0  0  0  0  0  0  0  0  0  0  0
  175.9280   19.0550   47.4950 C   0  0  0  0  0  0  0  0  0  0  0  0
  186.6590   22.0695   44.6011 H   0  0  0  0  0  0  0  0  0  0  0  0
  185.1684   21.9115   43.6112 H   0  0  0  0  0  0  0  0  0  0  0  0
  186.0871   23.4550   43.6112 H   0  0  0  0  0  0  0  0  0  0  0  0
  184.4313   25.0384   46.1968 H   0  0  0  0  0  0  0  0  0  0  0  0
  185.3490   25.0778   44.6531 H   0  0  0  0  0  0  0  0  0  0  0  0
  183.6104   24.6263   44.6531 H   0  0  0  0  0  0  0  0  0  0  0  0
  185.6880   23.8430   47.0690 H   0  0  0  0  0  0  0  0  0  0  0  0
  182.4311   19.1018   44.7883 H   0  0  0  0  0  0  0  0  0  0  0  0
  180.3902   17.6630   45.0479 H   0  0  0  0  0  0  0  0  0  0  0  0
  177.8470   17.7360   46.1790 H   0  0  0  0  0  0  0  0  0  0  0  0
  180.5193   22.2900   46.9893 H   0  0  0  0  0  0  0  0  0  0  0  0
  179.5060   25.4280   49.3010 H   0  0  0  0  0  0  0  0  0  0  0  0
  179.9300   24.1880   50.3930 H   0  0  0  0  0  0  0  0  0  0  0  0
  175.0396   23.6972   49.2241 H   0  0  0  0  0  0  0  0  0  0  0  0
  174.1692   21.8617   48.3049 H   0  0  0  0  0  0  0  0  0  0  0  0
  175.0716   21.3486   46.8177 H   0  0  0  0  0  0  0  0  0  0  0  0
  175.6510   19.9619   49.4188 H   0  0  0  0  0  0  0  0  0  0  0  0
  174.1266   19.5717   48.5184 H   0  0  0  0  0  0  0  0  0  0  0  0
  176.0031   18.0622   47.9627 H   0  0  0  0  0  0  0  0  0  0  0  0
  175.3696   19.0579   46.5473 H   0  0  0  0  0  0  0  0  0  0  0  0
  1  2  1  0
  2  3  1  0
  2  4  1  0
  2  5  1  0
  5  6  3  0
  6  7  1  0
  7  8  2  0
  8  9  1  0
  9 10  2  0
 10 11  1  0
 11 12  1  0
 12 13  2  0
 13 14  1  0
 14 15  2  0
 13 16  1  0
 16 17  2  0
 17 18  1  0
 18 19  1  0
 18 20  2  0
 20 21  1  0
 21 22  2  0
 22 23  1  0
 23 24  1  0
 24 25  1  0
 15  7  1  0
 22 16  1  0
 14 10  1  0
 25 12  1  0
  1 26  1  0
  1 27  1  0
  1 28  1  0
  3 29  1  0
  3 30  1  0
  3 31  1  0
  4 32  1  0
  8 33  1  0
  9 34  1  0
 11 35  1  0
 15 36  1  0
 19 37  1  0
 19 38  1  0
 21 39  1  0
 23 40  1  0
 23 41  1  0
 24 42  1  0
 24 43  1  0
 25 44  1  0
 25 45  1  0
M  END
>  <meeko>  (2) 
{"is_sidechain": [false], "free_energy": -8.247, "intermolecular_energy": -11.145, "internal_energy": 0.714}

$$$$
