DTQ_out
     RDKit          3D

 37 39  0  0  0  0  0  0  0  0999 V2000
   37.0090   29.9520  -17.1610 C   0  0  0  0  0  0  0  0  0  0  0  0
   36.8630   28.6180  -16.6860 O   0  0  0  0  0  0  0  0  0  0  0  0
   37.9760   28.0580  -16.1120 C   0  0  0  0  0  0  0  0  0  0  0  0
   38.0840   28.3120  -14.7370 C   0  0  0  0  0  0  0  0  0  0  0  0
   39.1310   27.8260  -13.9700 C   0  0  0  0  0  0  0  0  0  0  0  0
   39.1760   28.1400  -12.6700 N   0  0  0  0  0  0  0  0  0  0  0  0
   40.2160   27.6750  -11.9700 C   0  0  0  0  0  0  0  0  0  0  0  0
   41.2030   26.9080  -12.4410 N   0  0  0  0  0  0  0  0  0  0  0  0
   41.1240   26.5720  -13.7400 C   0  0  0  0  0  0  0  0  0  0  0  0
   42.1710   25.7360  -14.1900 N   0  0  0  0  0  0  0  0  0  0  0  0
   43.5520   25.8950  -13.8970 C   0  0  0  0  0  0  0  0  0  0  0  0
   44.0960   27.0990  -13.4270 C   0  0  0  0  0  0  0  0  0  0  0  0
   45.4690   27.2160  -13.1960 C   0  0  0  0  0  0  0  0  0  0  0  0
   46.3130   26.1380  -13.4520 C   0  0  0  0  0  0  0  0  0  0  0  0
   45.7820   24.9540  -13.9470 C   0  0  0  0  0  0  0  0  0  0  0  0
   46.6440   23.9280  -14.1960 O   0  0  0  0  0  0  0  0  0  0  0  0
   44.4150   24.8280  -14.1820 C   0  0  0  0  0  0  0  0  0  0  0  0
   40.1010   27.0340  -14.5900 C   0  0  0  0  0  0  0  0  0  0  0  0
   39.9970   26.7710  -15.9840 C   0  0  0  0  0  0  0  0  0  0  0  0
   38.9270   27.2520  -16.7450 C   0  0  0  0  0  0  0  0  0  0  0  0
   38.7580   26.9720  -18.0730 O   0  0  0  0  0  0  0  0  0  0  0  0
   37.4640   26.5580  -18.5000 C   0  0  0  0  0  0  0  0  0  0  0  0
   37.0843   30.6396  -16.3057 H   0  0  0  0  0  0  0  0  0  0  0  0
   37.9206   30.0259  -17.7722 H   0  0  0  0  0  0  0  0  0  0  0  0
   36.1350   30.2213  -17.7722 H   0  0  0  0  0  0  0  0  0  0  0  0
   37.3082   28.9201  -14.2487 H   0  0  0  0  0  0  0  0  0  0  0  0
   40.2633   27.9500  -10.9060 H   0  0  0  0  0  0  0  0  0  0  0  0
   41.9210   24.9720  -14.7570 H   0  0  0  0  0  0  0  0  0  0  0  0
   43.4361   27.9587  -13.2386 H   0  0  0  0  0  0  0  0  0  0  0  0
   45.8835   28.1597  -12.8119 H   0  0  0  0  0  0  0  0  0  0  0  0
   47.3933   26.2239  -13.2633 H   0  0  0  0  0  0  0  0  0  0  0  0
   47.3950   23.8050  -13.6500 H   0  0  0  0  0  0  0  0  0  0  0  0
   44.0122   23.8900  -14.5917 H   0  0  0  0  0  0  0  0  0  0  0  0
   40.7786   26.1737  -16.4762 H   0  0  0  0  0  0  0  0  0  0  0  0
   36.8347   26.3567  -17.6206 H   0  0  0  0  0  0  0  0  0  0  0  0
   37.0052   27.3542  -19.1046 H   0  0  0  0  0  0  0  0  0  0  0  0
   37.5526   25.6434  -19.1046 H   0  0  0  0  0  0  0  0  0  0  0  0
  1  2  1  0
  2  3  1  0
  3  4  2  0
  4  5  1  0
  5  6  2  0
  6  7  1  0
  7  8  2  0
  8  9  1  0
  9 10  1  0
 10 11  1  0
 11 12  2  0
 12 13  1  0
 13 14  2  0
 14 15  1  0
 15 16  1  0
 15 17  2  0
  9 18  2  0
 18 19  1  0
 19 20  2  0
 20 21  1  0
 21 22  1  0
 20  3  1  0
 18  5  1  0
 17 11  1  0
  1 23  1  0
  1 24  1  0
  1 25  1  0
  4 26  1  0
  7 27  1  0
 10 28  1  0
 12 29  1  0
 13 30  1  0
 14 31  1  0
 16 32  1  0
 17 33  1  0
 19 34  1  0
 22 35  1  0
 22 36  1  0
 22 37  1  0
M  END
>  <meeko>  (1) 
{"is_sidechain": [false], "free_energy": -7.101, "intermolecular_energy": -8.969, "internal_energy": 0.314}

$$$$
DTQ_out
     RDKit          3D

 37 39  0  0  0  0  0  0  0  0999 V2000
   37.3340   29.1510  -15.1300 C   0  0  0  0  0  0  0  0  0  0  0  0
   37.5470   27.7520  -15.2860 O   0  0  0  0  0  0  0  0  0  0  0  0
   38.8310   27.3120  -15.0850 C   0  0  0  0  0  0  0  0  0  0  0  0
   39.3140   27.5680  -13.7930 C   0  0  0  0  0  0  0  0  0  0  0  0
   40.5850   27.1930  -13.3860 C   0  0  0  0  0  0  0  0  0  0  0  0
   40.9790   27.5010  -12.1450 N   0  0  0  0  0  0  0  0  0  0  0  0
   42.2210   27.1470  -11.7990 C   0  0  0  0  0  0  0  0  0  0  0  0
   43.0980   26.4940  -12.5670 N   0  0  0  0  0  0  0  0  0  0  0  0
   42.6730   26.1610  -13.7990 C   0  0  0  0  0  0  0  0  0  0  0  0
   43.6200   25.4460  -14.5670 N   0  0  0  0  0  0  0  0  0  0  0  0
   45.0040   25.3170  -14.2770 C   0  0  0  0  0  0  0  0  0  0  0  0
   45.5250   24.2650  -13.5100 C   0  0  0  0  0  0  0  0  0  0  0  0
   46.8910   24.2080  -13.2160 C   0  0  0  0  0  0  0  0  0  0  0  0
   47.7440   25.2110  -13.6690 C   0  0  0  0  0  0  0  0  0  0  0  0
   47.2250   26.2710  -14.4030 C   0  0  0  0  0  0  0  0  0  0  0  0
   48.0920   27.2380  -14.8170 O   0  0  0  0  0  0  0  0  0  0  0  0
   45.8660   26.3380  -14.6990 C   0  0  0  0  0  0  0  0  0  0  0  0
   41.4030   26.5150  -14.2930 C   0  0  0  0  0  0  0  0  0  0  0  0
   40.9190   26.2520  -15.6040 C   0  0  0  0  0  0  0  0  0  0  0  0
   39.6300   26.6190  -15.9990 C   0  0  0  0  0  0  0  0  0  0  0  0
   39.1050   26.3310  -17.2290 O   0  0  0  0  0  0  0  0  0  0  0  0
   39.0100   27.3950  -18.1710 C   0  0  0  0  0  0  0  0  0  0  0  0
   37.2962   29.3990  -14.0590 H   0  0  0  0  0  0  0  0  0  0  0  0
   38.1585   29.7027  -15.6052 H   0  0  0  0  0  0  0  0  0  0  0  0
   36.3827   29.4323  -15.6052 H   0  0  0  0  0  0  0  0  0  0  0  0
   38.6597   28.0856  -13.0761 H   0  0  0  0  0  0  0  0  0  0  0  0
   42.5523   27.4191  -10.7860 H   0  0  0  0  0  0  0  0  0  0  0  0
   43.2900   24.9960  -15.3770 H   0  0  0  0  0  0  0  0  0  0  0  0
   44.8535   23.4779  -13.1364 H   0  0  0  0  0  0  0  0  0  0  0  0
   47.2919   23.3703  -12.6265 H   0  0  0  0  0  0  0  0  0  0  0  0
   48.8205   25.1648  -13.4476 H   0  0  0  0  0  0  0  0  0  0  0  0
   48.6200   27.1000  -15.5790 H   0  0  0  0  0  0  0  0  0  0  0  0
   45.4686   27.1935  -15.2648 H   0  0  0  0  0  0  0  0  0  0  0  0
   41.5768   25.7463  -16.3262 H   0  0  0  0  0  0  0  0  0  0  0  0
   38.9245   28.3521  -17.6357 H   0  0  0  0  0  0  0  0  0  0  0  0
   39.9106   27.4072  -18.8024 H   0  0  0  0  0  0  0  0  0  0  0  0
   38.1215   27.2474  -18.8024 H   0  0  0  0  0  0  0  0  0  0  0  0
  1  2  1  0
  2  3  1  0
  3  4  2  0
  4  5  1  0
  5  6  2  0
  6  7  1  0
  7  8  2  0
  8  9  1  0
  9 10  1  0
 10 11  1  0
 11 12  2  0
 12 13  1  0
 13 14  2  0
 14 15  1  0
 15 16  1  0
 15 17  2  0
  9 18  2  0
 18 19  1  0
 19 20  2  0
 20 21  1  0
 21 22  1  0
 20  3  1  0
 18  5  1  0
 17 11  1  0
  1 23  1  0
  1 24  1  0
  1 25  1  0
  4 26  1  0
  7 27  1  0
 10 28  1  0
 12 29  1  0
 13 30  1  0
 14 31  1  0
 16 32  1  0
 17 33  1  0
 19 34  1  0
 22 35  1  0
 22 36  1  0
 22 37  1  0
M  END
>  <meeko>  (2) 
{"is_sidechain": [false], "free_energy": -7.07, "intermolecular_energy": -8.258, "internal_energy": -0.358}

$$$$
DTQ_out
     RDKit          3D

 37 39  0  0  0  0  0  0  0  0999 V2000
   35.3500   29.6490  -17.7070 C   0  0  0  0  0  0  0  0  0  0  0  0
   36.2980   28.7430  -18.2630 O   0  0  0  0  0  0  0  0  0  0  0  0
   37.2480   28.2600  -17.4000 C   0  0  0  0  0  0  0  0  0  0  0  0
   37.2350   28.8860  -16.1460 C   0  0  0  0  0  0  0  0  0  0  0  0
   38.1100   28.5350  -15.1290 C   0  0  0  0  0  0  0  0  0  0  0  0
   38.0520   29.2030  -13.9720 N   0  0  0  0  0  0  0  0  0  0  0  0
   38.9300   28.8530  -13.0260 C   0  0  0  0  0  0  0  0  0  0  0  0
   39.8450   27.8850  -13.1190 N   0  0  0  0  0  0  0  0  0  0  0  0
   39.8670   27.2000  -14.2760 C   0  0  0  0  0  0  0  0  0  0  0  0
   40.8290   26.1660  -14.3220 N   0  0  0  0  0  0  0  0  0  0  0  0
   42.1800   26.2620  -13.8960 C   0  0  0  0  0  0  0  0  0  0  0  0
   42.6270   27.2440  -13.0000 C   0  0  0  0  0  0  0  0  0  0  0  0
   43.9770   27.3230  -12.6480 C   0  0  0  0  0  0  0  0  0  0  0  0
   44.8960   26.4350  -13.2020 C   0  0  0  0  0  0  0  0  0  0  0  0
   44.4610   25.4820  -14.1150 C   0  0  0  0  0  0  0  0  0  0  0  0
   45.3940   24.6400  -14.6440 O   0  0  0  0  0  0  0  0  0  0  0  0
   43.1180   25.3960  -14.4740 C   0  0  0  0  0  0  0  0  0  0  0  0
   39.0210   27.5020  -15.3610 C   0  0  0  0  0  0  0  0  0  0  0  0
   39.0390   26.8620  -16.6310 C   0  0  0  0  0  0  0  0  0  0  0  0
   38.1410   27.2120  -17.6430 C   0  0  0  0  0  0  0  0  0  0  0  0
   38.0850   26.5810  -18.8560 O   0  0  0  0  0  0  0  0  0  0  0  0
   36.8370   26.5790  -19.5400 C   0  0  0  0  0  0  0  0  0  0  0  0
   35.3986   29.6025  -16.6091 H   0  0  0  0  0  0  0  0  0  0  0  0
   35.5801   30.6714  -18.0413 H   0  0  0  0  0  0  0  0  0  0  0  0
   34.3391   29.3728  -18.0413 H   0  0  0  0  0  0  0  0  0  0  0  0
   36.5030   29.6861  -15.9616 H   0  0  0  0  0  0  0  0  0  0  0  0
   38.8951   29.4160  -12.0816 H   0  0  0  0  0  0  0  0  0  0  0  0
   40.5350   25.2980  -14.6810 H   0  0  0  0  0  0  0  0  0  0  0  0
   41.9088   27.9581  -12.5707 H   0  0  0  0  0  0  0  0  0  0  0  0
   44.3143   28.0874  -11.9325 H   0  0  0  0  0  0  0  0  0  0  0  0
   45.9577   26.4877  -12.9190 H   0  0  0  0  0  0  0  0  0  0  0  0
   45.1250   23.9150  -15.1730 H   0  0  0  0  0  0  0  0  0  0  0  0
   42.7933   24.6476  -15.2119 H   0  0  0  0  0  0  0  0  0  0  0  0
   39.7791   26.0709  -16.8217 H   0  0  0  0  0  0  0  0  0  0  0  0
   36.0170   26.5777  -18.8068 H   0  0  0  0  0  0  0  0  0  0  0  0
   36.7632   27.4770  -20.1710 H   0  0  0  0  0  0  0  0  0  0  0  0
   36.7661   25.6807  -20.1710 H   0  0  0  0  0  0  0  0  0  0  0  0
  1  2  1  0
  2  3  1  0
  3  4  2  0
  4  5  1  0
  5  6  2  0
  6  7  1  0
  7  8  2  0
  8  9  1  0
  9 10  1  0
 10 11  1  0
 11 12  2  0
 12 13  1  0
 13 14  2  0
 14 15  1  0
 15 16  1  0
 15 17  2  0
  9 18  2  0
 18 19  1  0
 19 20  2  0
 20 21  1  0
 21 22  1  0
 20  3  1  0
 18  5  1  0
 17 11  1  0
  1 23  1  0
  1 24  1  0
  1 25  1  0
  4 26  1  0
  7 27  1  0
 10 28  1  0
 12 29  1  0
 13 30  1  0
 14 31  1  0
 16 32  1  0
 17 33  1  0
 19 34  1  0
 22 35  1  0
 22 36  1  0
 22 37  1  0
M  END
>  <meeko>  (3) 
{"is_sidechain": [false], "free_energy": -6.878, "intermolecular_energy": -9.295, "internal_energy": 0.921}

$$$$
DTQ_out
     RDKit          3D

 37 39  0  0  0  0  0  0  0  0999 V2000
   45.2920   26.1010  -13.0860 C   0  0  0  0  0  0  0  0  0  0  0  0
   44.0980   26.3700  -12.3600 O   0  0  0  0  0  0  0  0  0  0  0  0
   42.9520   26.4840  -13.1050 C   0  0  0  0  0  0  0  0  0  0  0  0
   43.1020   26.0550  -14.4320 C   0  0  0  0  0  0  0  0  0  0  0  0
   42.0590   26.0790  -15.3450 C   0  0  0  0  0  0  0  0  0  0  0  0
   42.2950   25.6800  -16.6000 N   0  0  0  0  0  0  0  0  0  0  0  0
   41.2710   25.7440  -17.4570 C   0  0  0  0  0  0  0  0  0  0  0  0
   40.0300   26.1490  -17.1750 N   0  0  0  0  0  0  0  0  0  0  0  0
   39.8020   26.5140  -15.9010 C   0  0  0  0  0  0  0  0  0  0  0  0
   38.4690   26.9060  -15.6380 N   0  0  0  0  0  0  0  0  0  0  0  0
   37.6280   27.6440  -16.5120 C   0  0  0  0  0  0  0  0  0  0  0  0
   37.1310   28.9160  -16.1950 C   0  0  0  0  0  0  0  0  0  0  0  0
   36.2690   29.5810  -17.0710 C   0  0  0  0  0  0  0  0  0  0  0  0
   35.8810   28.9740  -18.2630 C   0  0  0  0  0  0  0  0  0  0  0  0
   36.3470   27.7000  -18.5650 C   0  0  0  0  0  0  0  0  0  0  0  0
   35.9340   27.1360  -19.7360 O   0  0  0  0  0  0  0  0  0  0  0  0
   37.2040   27.0280  -17.6970 C   0  0  0  0  0  0  0  0  0  0  0  0
   40.8080   26.5290  -14.9160 C   0  0  0  0  0  0  0  0  0  0  0  0
   40.6490   26.9650  -13.5720 C   0  0  0  0  0  0  0  0  0  0  0  0
   41.7020   26.9200  -12.6550 C   0  0  0  0  0  0  0  0  0  0  0  0
   41.5740   27.2730  -11.3390 O   0  0  0  0  0  0  0  0  0  0  0  0
   40.3560   26.9390  -10.6830 C   0  0  0  0  0  0  0  0  0  0  0  0
   46.1158   25.9154  -12.3811 H   0  0  0  0  0  0  0  0  0  0  0  0
   45.1442   25.2136  -13.7191 H   0  0  0  0  0  0  0  0  0  0  0  0
   45.5390   26.9660  -13.7191 H   0  0  0  0  0  0  0  0  0  0  0  0
   44.0845   25.6855  -14.7607 H   0  0  0  0  0  0  0  0  0  0  0  0
   41.4695   25.4334  -18.4934 H   0  0  0  0  0  0  0  0  0  0  0  0
   38.0890   26.6430  -14.7690 H   0  0  0  0  0  0  0  0  0  0  0  0
   37.4222   29.3947  -15.2484 H   0  0  0  0  0  0  0  0  0  0  0  0
   35.8965   30.5848  -16.8189 H   0  0  0  0  0  0  0  0  0  0  0  0
   35.2110   29.4988  -18.9599 H   0  0  0  0  0  0  0  0  0  0  0  0
   35.8450   27.6640  -20.5050 H   0  0  0  0  0  0  0  0  0  0  0  0
   37.5485   26.0124  -17.9419 H   0  0  0  0  0  0  0  0  0  0  0  0
   39.6708   27.3479  -13.2456 H   0  0  0  0  0  0  0  0  0  0  0  0
   40.5032   26.9794   -9.5936 H   0  0  0  0  0  0  0  0  0  0  0  0
   39.5742   27.6559  -10.9742 H   0  0  0  0  0  0  0  0  0  0  0  0
   40.0492   25.9236  -10.9742 H   0  0  0  0  0  0  0  0  0  0  0  0
  1  2  1  0
  2  3  1  0
  3  4  2  0
  4  5  1  0
  5  6  2  0
  6  7  1  0
  7  8  2  0
  8  9  1  0
  9 10  1  0
 10 11  1  0
 11 12  2  0
 12 13  1  0
 13 14  2  0
 14 15  1  0
 15 16  1  0
 15 17  2  0
  9 18  2  0
 18 19  1  0
 19 20  2  0
 20 21  1  0
 21 22  1  0
 20  3  1  0
 18  5  1  0
 17 11  1  0
  1 23  1  0
  1 24  1  0
  1 25  1  0
  4 26  1  0
  7 27  1  0
 10 28  1  0
 12 29  1  0
 13 30  1  0
 14 31  1  0
 16 32  1  0
 17 33  1  0
 19 34  1  0
 22 35  1  0
 22 36  1  0
 22 37  1  0
M  END
>  <meeko>  (4) 
{"is_sidechain": [false], "free_energy": -6.446, "intermolecular_energy": -7.722, "internal_energy": -0.106}

$$$$
DTQ_out
     RDKit          3D

 37 39  0  0  0  0  0  0  0  0999 V2000
   35.2000   29.2100  -18.5440 C   0  0  0  0  0  0  0  0  0  0  0  0
   35.6710   29.6690  -17.2810 O   0  0  0  0  0  0  0  0  0  0  0  0
   36.6960   28.9490  -16.7230 C   0  0  0  0  0  0  0  0  0  0  0  0
   37.5050   28.3020  -17.6680 C   0  0  0  0  0  0  0  0  0  0  0  0
   38.6010   27.5330  -17.3080 C   0  0  0  0  0  0  0  0  0  0  0  0
   39.3030   26.9240  -18.2700 N   0  0  0  0  0  0  0  0  0  0  0  0
   40.3360   26.1700  -17.8810 C   0  0  0  0  0  0  0  0  0  0  0  0
   40.7460   25.9830  -16.6240 N   0  0  0  0  0  0  0  0  0  0  0  0
   40.0510   26.6290  -15.6720 C   0  0  0  0  0  0  0  0  0  0  0  0
   40.5370   26.4290  -14.3600 N   0  0  0  0  0  0  0  0  0  0  0  0
   41.8910   26.5330  -13.9450 C   0  0  0  0  0  0  0  0  0  0  0  0
   42.3480   27.5450  -13.0880 C   0  0  0  0  0  0  0  0  0  0  0  0
   43.7000   27.6290  -12.7450 C   0  0  0  0  0  0  0  0  0  0  0  0
   44.6100   26.7160  -13.2710 C   0  0  0  0  0  0  0  0  0  0  0  0
   44.1660   25.7320  -14.1450 C   0  0  0  0  0  0  0  0  0  0  0  0
   45.0920   24.8650  -14.6470 O   0  0  0  0  0  0  0  0  0  0  0  0
   42.8210   25.6410  -14.4940 C   0  0  0  0  0  0  0  0  0  0  0  0
   38.9200   27.4200  -15.9520 C   0  0  0  0  0  0  0  0  0  0  0  0
   38.1040   28.0740  -14.9890 C   0  0  0  0  0  0  0  0  0  0  0  0
   37.0120   28.8610  -15.3640 C   0  0  0  0  0  0  0  0  0  0  0  0
   36.2390   29.5550  -14.4730 O   0  0  0  0  0  0  0  0  0  0  0  0
   36.8630   30.0140  -13.2780 C   0  0  0  0  0  0  0  0  0  0  0  0
   34.4199   28.4498  -18.3902 H   0  0  0  0  0  0  0  0  0  0  0  0
   34.7813   30.0560  -19.1087 H   0  0  0  0  0  0  0  0  0  0  0  0
   36.0349   28.7696  -19.1087 H   0  0  0  0  0  0  0  0  0  0  0  0
   37.2609   28.4086  -18.7353 H   0  0  0  0  0  0  0  0  0  0  0  0
   40.9019   25.6548  -18.6712 H   0  0  0  0  0  0  0  0  0  0  0  0
   39.8750   26.1960  -13.6690 H   0  0  0  0  0  0  0  0  0  0  0  0
   41.6360   28.2788  -12.6824 H   0  0  0  0  0  0  0  0  0  0  0  0
   44.0454   28.4167  -12.0592 H   0  0  0  0  0  0  0  0  0  0  0  0
   45.6736   26.7735  -12.9962 H   0  0  0  0  0  0  0  0  0  0  0  0
   45.0630   24.6210  -15.5510 H   0  0  0  0  0  0  0  0  0  0  0  0
   42.4884   24.8675  -15.2019 H   0  0  0  0  0  0  0  0  0  0  0  0
   38.3384   27.9574  -13.9206 H   0  0  0  0  0  0  0  0  0  0  0  0
   36.3226   29.6165  -12.4062 H   0  0  0  0  0  0  0  0  0  0  0  0
   37.9064   29.6665  -13.2524 H   0  0  0  0  0  0  0  0  0  0  0  0
   36.8420   31.1135  -13.2524 H   0  0  0  0  0  0  0  0  0  0  0  0
  1  2  1  0
  2  3  1  0
  3  4  2  0
  4  5  1  0
  5  6  2  0
  6  7  1  0
  7  8  2  0
  8  9  1  0
  9 10  1  0
 10 11  1  0
 11 12  2  0
 12 13  1  0
 13 14  2  0
 14 15  1  0
 15 16  1  0
 15 17  2  0
  9 18  2  0
 18 19  1  0
 19 20  2  0
 20 21  1  0
 21 22  1  0
 20  3  1  0
 18  5  1  0
 17 11  1  0
  1 23  1  0
  1 24  1  0
  1 25  1  0
  4 26  1  0
  7 27  1  0
 10 28  1  0
 12 29  1  0
 13 30  1  0
 14 31  1  0
 16 32  1  0
 17 33  1  0
 19 34  1  0
 22 35  1  0
 22 36  1  0
 22 37  1  0
M  END
>  <meeko>  (5) 
{"is_sidechain": [false], "free_energy": -6.265, "intermolecular_energy": -7.475, "internal_energy": -0.124}

$$$$
DTQ_out
     RDKit          3D

 37 39  0  0  0  0  0  0  0  0999 V2000
   45.3530   26.5480  -12.7510 C   0  0  0  0  0  0  0  0  0  0  0  0
   44.0780   26.7300  -12.1440 O   0  0  0  0  0  0  0  0  0  0  0  0
   42.9920   26.6070  -12.9730 C   0  0  0  0  0  0  0  0  0  0  0  0
   43.3260   26.2180  -14.2780 C   0  0  0  0  0  0  0  0  0  0  0  0
   42.3720   26.0280  -15.2660 C   0  0  0  0  0  0  0  0  0  0  0  0
   42.7770   25.6850  -16.4940 N   0  0  0  0  0  0  0  0  0  0  0  0
   41.8290   25.5380  -17.4250 C   0  0  0  0  0  0  0  0  0  0  0  0
   40.5130   25.6800  -17.2400 N   0  0  0  0  0  0  0  0  0  0  0  0
   40.1210   25.9900  -15.9920 C   0  0  0  0  0  0  0  0  0  0  0  0
   38.7210   26.1010  -15.8340 N   0  0  0  0  0  0  0  0  0  0  0  0
   37.9420   27.2630  -16.0780 C   0  0  0  0  0  0  0  0  0  0  0  0
   37.5460   27.6580  -17.3640 C   0  0  0  0  0  0  0  0  0  0  0  0
   36.8180   28.8360  -17.5530 C   0  0  0  0  0  0  0  0  0  0  0  0
   36.4950   29.6390  -16.4630 C   0  0  0  0  0  0  0  0  0  0  0  0
   36.9120   29.2670  -15.1910 C   0  0  0  0  0  0  0  0  0  0  0  0
   36.5860   30.0870  -14.1520 O   0  0  0  0  0  0  0  0  0  0  0  0
   37.6400   28.0970  -14.9920 C   0  0  0  0  0  0  0  0  0  0  0  0
   41.0260   26.2120  -14.9370 C   0  0  0  0  0  0  0  0  0  0  0  0
   40.6810   26.6060  -13.6150 C   0  0  0  0  0  0  0  0  0  0  0  0
   41.6500   26.7780  -12.6220 C   0  0  0  0  0  0  0  0  0  0  0  0
   41.3540   27.0970  -11.3250 O   0  0  0  0  0  0  0  0  0  0  0  0
   39.9920   27.0120  -10.9200 C   0  0  0  0  0  0  0  0  0  0  0  0
   46.1190   26.4387  -11.9692 H   0  0  0  0  0  0  0  0  0  0  0  0
   45.3356   25.6432  -13.3764 H   0  0  0  0  0  0  0  0  0  0  0  0
   45.5894   27.4215  -13.3764 H   0  0  0  0  0  0  0  0  0  0  0  0
   44.3852   26.0574  -14.5275 H   0  0  0  0  0  0  0  0  0  0  0  0
   42.1637   25.2753  -18.4394 H   0  0  0  0  0  0  0  0  0  0  0  0
   38.2410   25.2990  -15.5270 H   0  0  0  0  0  0  0  0  0  0  0  0
   37.8106   27.0354  -18.2314 H   0  0  0  0  0  0  0  0  0  0  0  0
   36.4999   29.1289  -18.5645 H   0  0  0  0  0  0  0  0  0  0  0  0
   35.9137   30.5616  -16.6076 H   0  0  0  0  0  0  0  0  0  0  0  0
   35.9850   30.7940  -14.2840 H   0  0  0  0  0  0  0  0  0  0  0  0
   37.9788   27.8264  -13.9811 H   0  0  0  0  0  0  0  0  0  0  0  0
   39.6236   26.7801  -13.3670 H   0  0  0  0  0  0  0  0  0  0  0  0
   39.9357   27.0085   -9.8214 H   0  0  0  0  0  0  0  0  0  0  0  0
   39.4380   27.8773  -11.3128 H   0  0  0  0  0  0  0  0  0  0  0  0
   39.5499   26.0845  -11.3128 H   0  0  0  0  0  0  0  0  0  0  0  0
  1  2  1  0
  2  3  1  0
  3  4  2  0
  4  5  1  0
  5  6  2  0
  6  7  1  0
  7  8  2  0
  8  9  1  0
  9 10  1  0
 10 11  1  0
 11 12  2  0
 12 13  1  0
 13 14  2  0
 14 15  1  0
 15 16  1  0
 15 17  2  0
  9 18  2  0
 18 19  1  0
 19 20  2  0
 20 21  1  0
 21 22  1  0
 20  3  1  0
 18  5  1  0
 17 11  1  0
  1 23  1  0
  1 24  1  0
  1 25  1  0
  4 26  1  0
  7 27  1  0
 10 28  1  0
 12 29  1  0
 13 30  1  0
 14 31  1  0
 16 32  1  0
 17 33  1  0
 19 34  1  0
 22 35  1  0
 22 36  1  0
 22 37  1  0
M  END
>  <meeko>  (6) 
{"is_sidechain": [false], "free_energy": -5.986, "intermolecular_energy": -6.594, "internal_energy": -0.654}

$$$$
DTQ_out
     RDKit          3D

 37 39  0  0  0  0  0  0  0  0999 V2000
   45.4230   25.0570  -13.8270 C   0  0  0  0  0  0  0  0  0  0  0  0
   44.6190   25.5130  -14.9090 O   0  0  0  0  0  0  0  0  0  0  0  0
   43.3170   25.8190  -14.6060 C   0  0  0  0  0  0  0  0  0  0  0  0
   43.1330   26.2270  -13.2770 C   0  0  0  0  0  0  0  0  0  0  0  0
   41.8930   26.5910  -12.7750 C   0  0  0  0  0  0  0  0  0  0  0  0
   41.7980   26.9390  -11.4870 N   0  0  0  0  0  0  0  0  0  0  0  0
   40.5810   27.2570  -11.0340 C   0  0  0  0  0  0  0  0  0  0  0  0
   39.4540   27.2790  -11.7500 N   0  0  0  0  0  0  0  0  0  0  0  0
   39.5730   26.9590  -13.0500 C   0  0  0  0  0  0  0  0  0  0  0  0
   38.3630   27.0240  -13.7780 N   0  0  0  0  0  0  0  0  0  0  0  0
   38.1570   27.7220  -14.9980 C   0  0  0  0  0  0  0  0  0  0  0  0
   37.7640   29.0670  -15.0480 C   0  0  0  0  0  0  0  0  0  0  0  0
   37.5320   29.6940  -16.2760 C   0  0  0  0  0  0  0  0  0  0  0  0
   37.6720   28.9780  -17.4620 C   0  0  0  0  0  0  0  0  0  0  0  0
   38.0320   27.6370  -17.4140 C   0  0  0  0  0  0  0  0  0  0  0  0
   38.1460   26.9690  -18.5970 O   0  0  0  0  0  0  0  0  0  0  0  0
   38.2630   27.0020  -16.1960 C   0  0  0  0  0  0  0  0  0  0  0  0
   40.7920   26.5680  -13.6350 C   0  0  0  0  0  0  0  0  0  0  0  0
   40.9720   26.1550  -14.9840 C   0  0  0  0  0  0  0  0  0  0  0  0
   42.2300   25.8080  -15.4850 C   0  0  0  0  0  0  0  0  0  0  0  0
   42.4550   25.4640  -16.7900 O   0  0  0  0  0  0  0  0  0  0  0  0
   41.3380   25.4650  -17.6740 C   0  0  0  0  0  0  0  0  0  0  0  0
   44.9443   25.3285  -12.8746 H   0  0  0  0  0  0  0  0  0  0  0  0
   45.5300   23.9638  -13.8850 H   0  0  0  0  0  0  0  0  0  0  0  0
   46.4162   25.5262  -13.8850 H   0  0  0  0  0  0  0  0  0  0  0  0
   44.0053   26.2594  -12.6077 H   0  0  0  0  0  0  0  0  0  0  0  0
   40.5004   27.5261   -9.9705 H   0  0  0  0  0  0  0  0  0  0  0  0
   37.5910   26.5410  -13.4050 H   0  0  0  0  0  0  0  0  0  0  0  0
   37.6372   29.6334  -14.1136 H   0  0  0  0  0  0  0  0  0  0  0  0
   37.2386   30.7538  -16.3052 H   0  0  0  0  0  0  0  0  0  0  0  0
   37.4988   29.4707  -18.4301 H   0  0  0  0  0  0  0  0  0  0  0  0
   37.8330   26.0890  -18.6700 H   0  0  0  0  0  0  0  0  0  0  0  0
   38.5288   25.9348  -16.1742 H   0  0  0  0  0  0  0  0  0  0  0  0
   40.0983   26.1074  -15.6506 H   0  0  0  0  0  0  0  0  0  0  0  0
   40.4069   25.4658  -17.0883 H   0  0  0  0  0  0  0  0  0  0  0  0
   41.3731   26.3631  -18.3082 H   0  0  0  0  0  0  0  0  0  0  0  0
   41.3715   24.5668  -18.3082 H   0  0  0  0  0  0  0  0  0  0  0  0
  1  2  1  0
  2  3  1  0
  3  4  2  0
  4  5  1  0
  5  6  2  0
  6  7  1  0
  7  8  2  0
  8  9  1  0
  9 10  1  0
 10 11  1  0
 11 12  2  0
 12 13  1  0
 13 14  2  0
 14 15  1  0
 15 16  1  0
 15 17  2  0
  9 18  2  0
 18 19  1  0
 19 20  2  0
 20 21  1  0
 21 22  1  0
 20  3  1  0
 18  5  1  0
 17 11  1  0
  1 23  1  0
  1 24  1  0
  1 25  1  0
  4 26  1  0
  7 27  1  0
 10 28  1  0
 12 29  1  0
 13 30  1  0
 14 31  1  0
 16 32  1  0
 17 33  1  0
 19 34  1  0
 22 35  1  0
 22 36  1  0
 22 37  1  0
M  END
>  <meeko>  (7) 
{"is_sidechain": [false], "free_energy": -5.816, "intermolecular_energy": -6.94, "internal_energy": -0.092}

$$$$
DTQ_out
     RDKit          3D

 37 39  0  0  0  0  0  0  0  0999 V2000
   36.9730   29.1950  -15.0590 C   0  0  0  0  0  0  0  0  0  0  0  0
   37.7940   28.9220  -13.9280 O   0  0  0  0  0  0  0  0  0  0  0  0
   38.8210   28.0360  -14.1290 C   0  0  0  0  0  0  0  0  0  0  0  0
   39.0410   27.7300  -15.4790 C   0  0  0  0  0  0  0  0  0  0  0  0
   40.0410   26.8640  -15.8940 C   0  0  0  0  0  0  0  0  0  0  0  0
   40.1640   26.6020  -17.2000 N   0  0  0  0  0  0  0  0  0  0  0  0
   41.1220   25.7400  -17.5560 C   0  0  0  0  0  0  0  0  0  0  0  0
   41.9810   25.1310  -16.7350 N   0  0  0  0  0  0  0  0  0  0  0  0
   41.8660   25.4320  -15.4290 C   0  0  0  0  0  0  0  0  0  0  0  0
   42.8130   24.7910  -14.5990 N   0  0  0  0  0  0  0  0  0  0  0  0
   44.0320   25.3510  -14.1340 C   0  0  0  0  0  0  0  0  0  0  0  0
   44.1370   26.6730  -13.6770 C   0  0  0  0  0  0  0  0  0  0  0  0
   45.3710   27.1890  -13.2730 C   0  0  0  0  0  0  0  0  0  0  0  0
   46.5140   26.3970  -13.3390 C   0  0  0  0  0  0  0  0  0  0  0  0
   46.4190   25.0970  -13.8210 C   0  0  0  0  0  0  0  0  0  0  0  0
   47.5640   24.3590  -13.8820 O   0  0  0  0  0  0  0  0  0  0  0  0
   45.1950   24.5740  -14.2290 C   0  0  0  0  0  0  0  0  0  0  0  0
   40.8710   26.2930  -14.9260 C   0  0  0  0  0  0  0  0  0  0  0  0
   40.6540   26.5990  -13.5550 C   0  0  0  0  0  0  0  0  0  0  0  0
   39.6550   27.4880  -13.1490 C   0  0  0  0  0  0  0  0  0  0  0  0
   39.4530   27.8560  -11.8470 O   0  0  0  0  0  0  0  0  0  0  0  0
   40.1870   27.1590  -10.8440 C   0  0  0  0  0  0  0  0  0  0  0  0
   35.9800   29.5252  -14.7201 H   0  0  0  0  0  0  0  0  0  0  0  0
   37.4358   29.9876  -15.6653 H   0  0  0  0  0  0  0  0  0  0  0  0
   36.8690   28.2831  -15.6653 H   0  0  0  0  0  0  0  0  0  0  0  0
   38.3953   28.1949  -16.2386 H   0  0  0  0  0  0  0  0  0  0  0  0
   41.2111   25.5105  -18.6281 H   0  0  0  0  0  0  0  0  0  0  0  0
   42.6080   23.8710  -14.3150 H   0  0  0  0  0  0  0  0  0  0  0  0
   43.2403   27.3088  -13.6363 H   0  0  0  0  0  0  0  0  0  0  0  0
   45.4394   28.2224  -12.9023 H   0  0  0  0  0  0  0  0  0  0  0  0
   47.4851   26.7972  -13.0121 H   0  0  0  0  0  0  0  0  0  0  0  0
   47.9760   24.2000  -14.7080 H   0  0  0  0  0  0  0  0  0  0  0  0
   45.1404   23.5498  -14.6264 H   0  0  0  0  0  0  0  0  0  0  0  0
   41.2893   26.1234  -12.7933 H   0  0  0  0  0  0  0  0  0  0  0  0
   39.8465   27.4823   -9.8492 H   0  0  0  0  0  0  0  0  0  0  0  0
   40.0221   26.0770  -10.9543 H   0  0  0  0  0  0  0  0  0  0  0  0
   41.2590   27.3796  -10.9543 H   0  0  0  0  0  0  0  0  0  0  0  0
  1  2  1  0
  2  3  1  0
  3  4  2  0
  4  5  1  0
  5  6  2  0
  6  7  1  0
  7  8  2  0
  8  9  1  0
  9 10  1  0
 10 11  1  0
 11 12  2  0
 12 13  1  0
 13 14  2  0
 14 15  1  0
 15 16  1  0
 15 17  2  0
  9 18  2  0
 18 19  1  0
 19 20  2  0
 20 21  1  0
 21 22  1  0
 20  3  1  0
 18  5  1  0
 17 11  1  0
  1 23  1  0
  1 24  1  0
  1 25  1  0
  4 26  1  0
  7 27  1  0
 10 28  1  0
 12 29  1  0
 13 30  1  0
 14 31  1  0
 16 32  1  0
 17 33  1  0
 19 34  1  0
 22 35  1  0
 22 36  1  0
 22 37  1  0
M  END
>  <meeko>  (8) 
{"is_sidechain": [false], "free_energy": -5.728, "intermolecular_energy": -6.424, "internal_energy": -0.497}

$$$$
DTQ_out
     RDKit          3D

 37 39  0  0  0  0  0  0  0  0999 V2000
   46.2380   27.1240  -12.6170 C   0  0  0  0  0  0  0  0  0  0  0  0
   45.2720   26.1410  -12.2610 O   0  0  0  0  0  0  0  0  0  0  0  0
   44.0630   26.2230  -12.9050 C   0  0  0  0  0  0  0  0  0  0  0  0
   43.1070   26.9720  -12.2060 C   0  0  0  0  0  0  0  0  0  0  0  0
   41.8260   27.1840  -12.6910 C   0  0  0  0  0  0  0  0  0  0  0  0
   40.9640   27.8860  -11.9470 N   0  0  0  0  0  0  0  0  0  0  0  0
   39.7300   28.0440  -12.4380 C   0  0  0  0  0  0  0  0  0  0  0  0
   39.2820   27.5860  -13.6100 N   0  0  0  0  0  0  0  0  0  0  0  0
   40.1720   26.9130  -14.3610 C   0  0  0  0  0  0  0  0  0  0  0  0
   39.6670   26.4720  -15.6050 N   0  0  0  0  0  0  0  0  0  0  0  0
   38.6710   27.1240  -16.3810 C   0  0  0  0  0  0  0  0  0  0  0  0
   38.0300   28.2990  -15.9640 C   0  0  0  0  0  0  0  0  0  0  0  0
   37.0250   28.8760  -16.7450 C   0  0  0  0  0  0  0  0  0  0  0  0
   36.6390   28.2740  -17.9390 C   0  0  0  0  0  0  0  0  0  0  0  0
   37.2500   27.0930  -18.3400 C   0  0  0  0  0  0  0  0  0  0  0  0
   36.8330   26.5290  -19.5100 O   0  0  0  0  0  0  0  0  0  0  0  0
   38.2510   26.5090  -17.5680 C   0  0  0  0  0  0  0  0  0  0  0  0
   41.4870   26.6450  -13.9350 C   0  0  0  0  0  0  0  0  0  0  0  0
   42.4530   25.8850  -14.6500 C   0  0  0  0  0  0  0  0  0  0  0  0
   43.7470   25.6920  -14.1590 C   0  0  0  0  0  0  0  0  0  0  0  0
   44.7220   25.0190  -14.8430 O   0  0  0  0  0  0  0  0  0  0  0  0
   45.5880   24.1720  -14.0940 C   0  0  0  0  0  0  0  0  0  0  0  0
   46.6686   27.5622  -11.7046 H   0  0  0  0  0  0  0  0  0  0  0  0
   47.0365   26.6552  -13.2108 H   0  0  0  0  0  0  0  0  0  0  0  0
   45.7553   27.9142  -13.2108 H   0  0  0  0  0  0  0  0  0  0  0  0
   43.3838   27.4085  -11.2350 H   0  0  0  0  0  0  0  0  0  0  0  0
   39.0157   28.6048  -11.8172 H   0  0  0  0  0  0  0  0  0  0  0  0
   40.0400   25.6370  -15.9680 H   0  0  0  0  0  0  0  0  0  0  0  0
   38.3206   28.7709  -15.0138 H   0  0  0  0  0  0  0  0  0  0  0  0
   36.5389   29.8063  -16.4160 H   0  0  0  0  0  0  0  0  0  0  0  0
   35.8551   28.7306  -18.5611 H   0  0  0  0  0  0  0  0  0  0  0  0
   36.3740   27.0460  -20.1410 H   0  0  0  0  0  0  0  0  0  0  0  0
   38.7125   25.5639  -17.8903 H   0  0  0  0  0  0  0  0  0  0  0  0
   42.1743   25.4371  -15.6152 H   0  0  0  0  0  0  0  0  0  0  0  0
   45.4210   24.3353  -13.0191 H   0  0  0  0  0  0  0  0  0  0  0  0
   45.3779   23.1212  -14.3422 H   0  0  0  0  0  0  0  0  0  0  0  0
   46.6339   24.4053  -14.3422 H   0  0  0  0  0  0  0  0  0  0  0  0
  1  2  1  0
  2  3  1  0
  3  4  2  0
  4  5  1  0
  5  6  2  0
  6  7  1  0
  7  8  2  0
  8  9  1  0
  9 10  1  0
 10 11  1  0
 11 12  2  0
 12 13  1  0
 13 14  2  0
 14 15  1  0
 15 16  1  0
 15 17  2  0
  9 18  2  0
 18 19  1  0
 19 20  2  0
 20 21  1  0
 21 22  1  0
 20  3  1  0
 18  5  1  0
 17 11  1  0
  1 23  1  0
  1 24  1  0
  1 25  1  0
  4 26  1  0
  7 27  1  0
 10 28  1  0
 12 29  1  0
 13 30  1  0
 14 31  1  0
 16 32  1  0
 17 33  1  0
 19 34  1  0
 22 35  1  0
 22 36  1  0
 22 37  1  0
M  END
>  <meeko>  (9) 
{"is_sidechain": [false], "free_energy": -5.487, "intermolecular_energy": -7.683, "internal_energy": 1.067}

$$$$
