lazabemide_out
     RDKit          3D

 24 24  0  0  0  0  0  0  0  0999 V2000
   37.9370   30.4830  -16.8410 N   0  0  0  0  0  0  0  0  0  0  0  0
   37.1920   29.3000  -16.3900 C   0  0  0  0  0  0  0  0  0  0  0  0
   37.4720   28.9760  -14.9150 C   0  0  0  0  0  0  0  0  0  0  0  0
   38.8260   28.5040  -14.7010 N   0  0  0  0  0  0  0  0  0  0  0  0
   39.1550   27.1670  -14.6680 C   0  0  0  0  0  0  0  0  0  0  0  0
   38.3610   26.2600  -14.8890 O   0  0  0  0  0  0  0  0  0  0  0  0
   40.5840   26.8910  -14.3140 C   0  0  0  0  0  0  0  0  0  0  0  0
   41.0850   27.2990  -13.0820 C   0  0  0  0  0  0  0  0  0  0  0  0
   42.4220   27.0290  -12.7890 C   0  0  0  0  0  0  0  0  0  0  0  0
   43.2040   26.3670  -13.7300 C   0  0  0  0  0  0  0  0  0  0  0  0
   44.8520   26.0160  -13.4050 Cl  0  0  0  0  0  0  0  0  0  0  0  0
   42.6210   25.9980  -14.9360 C   0  0  0  0  0  0  0  0  0  0  0  0
   41.3280   26.2430  -15.2580 N   0  0  0  0  0  0  0  0  0  0  0  0
   38.5710   30.7870  -16.1020 H   0  0  0  0  0  0  0  0  0  0  0  0
   37.2820   31.2340  -17.0580 H   0  0  0  0  0  0  0  0  0  0  0  0
   38.4740   30.2480  -17.6750 H   0  0  0  0  0  0  0  0  0  0  0  0
   36.1155   29.4886  -16.5147 H   0  0  0  0  0  0  0  0  0  0  0  0
   37.5164   28.4410  -16.9957 H   0  0  0  0  0  0  0  0  0  0  0  0
   37.3165   29.8864  -14.3175 H   0  0  0  0  0  0  0  0  0  0  0  0
   36.7845   28.1728  -14.6113 H   0  0  0  0  0  0  0  0  0  0  0  0
   39.5420   29.1680  -14.5740 H   0  0  0  0  0  0  0  0  0  0  0  0
   40.4432   27.8213  -12.3572 H   0  0  0  0  0  0  0  0  0  0  0  0
   42.8530   27.3361  -11.8247 H   0  0  0  0  0  0  0  0  0  0  0  0
   43.2472   25.4753  -15.6740 H   0  0  0  0  0  0  0  0  0  0  0  0
  1  2  1  0
  2  3  1  0
  3  4  1  0
  4  5  1  0
  5  6  2  0
  5  7  1  0
  7  8  2  0
  8  9  1  0
  9 10  2  0
 10 11  1  0
 10 12  1  0
 12 13  2  0
 13  7  1  0
  1 14  1  0
  1 15  1  0
  1 16  1  0
  2 17  1  0
  2 18  1  0
  3 19  1  0
  3 20  1  0
  4 21  1  0
  8 22  1  0
  9 23  1  0
 12 24  1  0
M  CHG  1   1   1
M  END
>  <meeko>  (1) 
{"is_sidechain": [false], "free_energy": -6.693, "intermolecular_energy": -8.063, "internal_energy": -0.169}

$$$$
lazabemide_out
     RDKit          3D

 24 24  0  0  0  0  0  0  0  0999 V2000
   39.4640   27.2680  -18.3510 N   0  0  0  0  0  0  0  0  0  0  0  0
   38.2960   26.9480  -17.5200 C   0  0  0  0  0  0  0  0  0  0  0  0
   38.5340   27.2910  -16.0420 C   0  0  0  0  0  0  0  0  0  0  0  0
   39.8430   26.8720  -15.5820 N   0  0  0  0  0  0  0  0  0  0  0  0
   40.2220   26.9240  -14.2590 C   0  0  0  0  0  0  0  0  0  0  0  0
   39.4760   27.2510  -13.3440 O   0  0  0  0  0  0  0  0  0  0  0  0
   41.6550   26.5600  -14.0120 C   0  0  0  0  0  0  0  0  0  0  0  0
   42.3810   27.2310  -13.0340 C   0  0  0  0  0  0  0  0  0  0  0  0
   43.7130   26.8700  -12.8340 C   0  0  0  0  0  0  0  0  0  0  0  0
   44.2670   25.8590  -13.6130 C   0  0  0  0  0  0  0  0  0  0  0  0
   45.9020   25.3850  -13.3950 Cl  0  0  0  0  0  0  0  0  0  0  0  0
   43.4680   25.2430  -14.5670 C   0  0  0  0  0  0  0  0  0  0  0  0
   42.1710   25.5670  -14.7920 N   0  0  0  0  0  0  0  0  0  0  0  0
   39.7260   28.2420  -18.2070 H   0  0  0  0  0  0  0  0  0  0  0  0
   39.2330   27.1170  -19.3320 H   0  0  0  0  0  0  0  0  0  0  0  0
   40.2430   26.6640  -18.0880 H   0  0  0  0  0  0  0  0  0  0  0  0
   37.4321   27.5234  -17.8840 H   0  0  0  0  0  0  0  0  0  0  0  0
   38.1111   25.8662  -17.5936 H   0  0  0  0  0  0  0  0  0  0  0  0
   38.4461   28.3799  -15.9134 H   0  0  0  0  0  0  0  0  0  0  0  0
   37.7811   26.7531  -15.4472 H   0  0  0  0  0  0  0  0  0  0  0  0
   40.4900   26.5360  -16.2440 H   0  0  0  0  0  0  0  0  0  0  0  0
   41.9162   28.0266  -12.4332 H   0  0  0  0  0  0  0  0  0  0  0  0
   44.3186   27.3785  -12.0694 H   0  0  0  0  0  0  0  0  0  0  0  0
   43.9144   24.4439  -15.1770 H   0  0  0  0  0  0  0  0  0  0  0  0
  1  2  1  0
  2  3  1  0
  3  4  1  0
  4  5  1  0
  5  6  2  0
  5  7  1  0
  7  8  2  0
  8  9  1  0
  9 10  2  0
 10 11  1  0
 10 12  1  0
 12 13  2  0
 13  7  1  0
  1 14  1  0
  1 15  1  0
  1 16  1  0
  2 17  1  0
  2 18  1  0
  3 19  1  0
  3 20  1  0
  4 21  1  0
  8 22  1  0
  9 23  1  0
 12 24  1  0
M  CHG  1   1   1
M  END
>  <meeko>  (2) 
{"is_sidechain": [false], "free_energy": -6.666, "intermolecular_energy": -8.053, "internal_energy": -0.147}

$$$$
lazabemide_out
     RDKit          3D

 24 24  0  0  0  0  0  0  0  0999 V2000
   42.8910   26.9160  -12.3270 N   0  0  0  0  0  0  0  0  0  0  0  0
   43.2270   26.6510  -13.7320 C   0  0  0  0  0  0  0  0  0  0  0  0
   42.1700   25.7700  -14.4160 C   0  0  0  0  0  0  0  0  0  0  0  0
   41.0850   26.5470  -14.9810 N   0  0  0  0  0  0  0  0  0  0  0  0
   39.9350   26.8410  -14.2840 C   0  0  0  0  0  0  0  0  0  0  0  0
   39.7500   26.5450  -13.1090 O   0  0  0  0  0  0  0  0  0  0  0  0
   38.8880   27.5500  -15.0880 C   0  0  0  0  0  0  0  0  0  0  0  0
   38.2120   28.6370  -14.5420 C   0  0  0  0  0  0  0  0  0  0  0  0
   37.2410   29.2700  -15.3170 C   0  0  0  0  0  0  0  0  0  0  0  0
   36.9820   28.7990  -16.6000 C   0  0  0  0  0  0  0  0  0  0  0  0
   35.7960   29.5530  -17.5850 Cl  0  0  0  0  0  0  0  0  0  0  0  0
   37.7040   27.7070  -17.0650 C   0  0  0  0  0  0  0  0  0  0  0  0
   38.6540   27.0640  -16.3410 N   0  0  0  0  0  0  0  0  0  0  0  0
   42.3750   26.1240  -11.9460 H   0  0  0  0  0  0  0  0  0  0  0  0
   42.3180   27.7570  -12.2680 H   0  0  0  0  0  0  0  0  0  0  0  0
   43.7490   27.0510  -11.7930 H   0  0  0  0  0  0  0  0  0  0  0  0
   43.2935   27.6088  -14.2688 H   0  0  0  0  0  0  0  0  0  0  0  0
   44.1873   26.1151  -13.7583 H   0  0  0  0  0  0  0  0  0  0  0  0
   42.6537   25.1999  -15.2228 H   0  0  0  0  0  0  0  0  0  0  0  0
   41.7430   25.1039  -13.6518 H   0  0  0  0  0  0  0  0  0  0  0  0
   41.1750   26.8800  -15.9040 H   0  0  0  0  0  0  0  0  0  0  0  0
   38.4381   28.9881  -13.5243 H   0  0  0  0  0  0  0  0  0  0  0  0
   36.6861   30.1321  -14.9184 H   0  0  0  0  0  0  0  0  0  0  0  0
   37.4927   27.3420  -18.0809 H   0  0  0  0  0  0  0  0  0  0  0  0
  1  2  1  0
  2  3  1  0
  3  4  1  0
  4  5  1  0
  5  6  2  0
  5  7  1  0
  7  8  2  0
  8  9  1  0
  9 10  2  0
 10 11  1  0
 10 12  1  0
 12 13  2  0
 13  7  1  0
  1 14  1  0
  1 15  1  0
  1 16  1  0
  2 17  1  0
  2 18  1  0
  3 19  1  0
  3 20  1  0
  4 21  1  0
  8 22  1  0
  9 23  1  0
 12 24  1  0
M  CHG  1   1   1
M  END
>  <meeko>  (3) 
{"is_sidechain": [false], "free_energy": -6.625, "intermolecular_energy": -7.799, "internal_energy": -0.351}

$$$$
lazabemide_out
     RDKit          3D

 24 24  0  0  0  0  0  0  0  0999 V2000
   44.1530   27.1320  -14.4290 N   0  0  0  0  0  0  0  0  0  0  0  0
   43.0470   26.7540  -13.5390 C   0  0  0  0  0  0  0  0  0  0  0  0
   42.0430   25.8240  -14.2370 C   0  0  0  0  0  0  0  0  0  0  0  0
   40.9840   26.5560  -14.9030 N   0  0  0  0  0  0  0  0  0  0  0  0
   39.8420   26.9710  -14.2570 C   0  0  0  0  0  0  0  0  0  0  0  0
   39.6440   26.8330  -13.0550 O   0  0  0  0  0  0  0  0  0  0  0  0
   38.8200   27.6040  -15.1520 C   0  0  0  0  0  0  0  0  0  0  0  0
   38.6360   27.1210  -16.4440 C   0  0  0  0  0  0  0  0  0  0  0  0
   37.6800   27.7380  -17.2510 C   0  0  0  0  0  0  0  0  0  0  0  0
   36.9490   28.8060  -16.7430 C   0  0  0  0  0  0  0  0  0  0  0  0
   35.7630   29.5890  -17.7050 Cl  0  0  0  0  0  0  0  0  0  0  0  0
   37.1990   29.2230  -15.4420 C   0  0  0  0  0  0  0  0  0  0  0  0
   38.1210   28.6510  -14.6280 N   0  0  0  0  0  0  0  0  0  0  0  0
   44.2870   26.4050  -15.1310 H   0  0  0  0  0  0  0  0  0  0  0  0
   45.0070   27.2400  -13.8830 H   0  0  0  0  0  0  0  0  0  0  0  0
   43.9310   28.0140  -14.8910 H   0  0  0  0  0  0  0  0  0  0  0  0
   43.4588   26.2371  -12.6596 H   0  0  0  0  0  0  0  0  0  0  0  0
   42.5156   27.6716  -13.2465 H   0  0  0  0  0  0  0  0  0  0  0  0
   42.5800   25.2212  -14.9842 H   0  0  0  0  0  0  0  0  0  0  0  0
   41.5800   25.1905  -13.4661 H   0  0  0  0  0  0  0  0  0  0  0  0
   41.0870   26.7650  -15.8600 H   0  0  0  0  0  0  0  0  0  0  0  0
   39.2293   26.2742  -16.8194 H   0  0  0  0  0  0  0  0  0  0  0  0
   37.5064   27.3835  -18.2778 H   0  0  0  0  0  0  0  0  0  0  0  0
   36.6144   30.0675  -15.0482 H   0  0  0  0  0  0  0  0  0  0  0  0
  1  2  1  0
  2  3  1  0
  3  4  1  0
  4  5  1  0
  5  6  2  0
  5  7  1  0
  7  8  2  0
  8  9  1  0
  9 10  2  0
 10 11  1  0
 10 12  1  0
 12 13  2  0
 13  7  1  0
  1 14  1  0
  1 15  1  0
  1 16  1  0
  2 17  1  0
  2 18  1  0
  3 19  1  0
  3 20  1  0
  4 21  1  0
  8 22  1  0
  9 23  1  0
 12 24  1  0
M  CHG  1   1   1
M  END
>  <meeko>  (4) 
{"is_sidechain": [false], "free_energy": -6.432, "intermolecular_energy": -7.767, "internal_energy": -0.15}

$$$$
lazabemide_out
     RDKit          3D

 24 24  0  0  0  0  0  0  0  0999 V2000
   43.9020   25.5240  -14.4940 N   0  0  0  0  0  0  0  0  0  0  0  0
   44.0820   26.7740  -13.7450 C   0  0  0  0  0  0  0  0  0  0  0  0
   42.9500   27.0010  -12.7310 C   0  0  0  0  0  0  0  0  0  0  0  0
   41.7350   27.4830  -13.3590 N   0  0  0  0  0  0  0  0  0  0  0  0
   40.7500   26.6420  -13.8230 C   0  0  0  0  0  0  0  0  0  0  0  0
   40.7650   25.4240  -13.6850 O   0  0  0  0  0  0  0  0  0  0  0  0
   39.6340   27.3350  -14.5440 C   0  0  0  0  0  0  0  0  0  0  0  0
   39.0450   28.4660  -13.9860 C   0  0  0  0  0  0  0  0  0  0  0  0
   38.0060   29.0820  -14.6830 C   0  0  0  0  0  0  0  0  0  0  0  0
   37.5970   28.5520  -15.9020 C   0  0  0  0  0  0  0  0  0  0  0  0
   36.3230   29.2840  -16.7890 Cl  0  0  0  0  0  0  0  0  0  0  0  0
   38.2400   27.4200  -16.3830 C   0  0  0  0  0  0  0  0  0  0  0  0
   39.2510   26.7910  -15.7350 N   0  0  0  0  0  0  0  0  0  0  0  0
   42.9270   25.4350  -14.7770 H   0  0  0  0  0  0  0  0  0  0  0  0
   44.1600   24.7340  -13.9030 H   0  0  0  0  0  0  0  0  0  0  0  0
   44.4960   25.5360  -15.3230 H   0  0  0  0  0  0  0  0  0  0  0  0
   45.0396   26.7308  -13.2055 H   0  0  0  0  0  0  0  0  0  0  0  0
   44.0693   27.6072  -14.4631 H   0  0  0  0  0  0  0  0  0  0  0  0
   42.7326   26.0488  -12.2250 H   0  0  0  0  0  0  0  0  0  0  0  0
   43.2866   27.7681  -12.0180 H   0  0  0  0  0  0  0  0  0  0  0  0
   41.6100   28.4550  -13.4560 H   0  0  0  0  0  0  0  0  0  0  0  0
   39.3901   28.8636  -13.0202 H   0  0  0  0  0  0  0  0  0  0  0  0
   37.5154   29.9772  -14.2732 H   0  0  0  0  0  0  0  0  0  0  0  0
   37.9094   27.0085  -17.3481 H   0  0  0  0  0  0  0  0  0  0  0  0
  1  2  1  0
  2  3  1  0
  3  4  1  0
  4  5  1  0
  5  6  2  0
  5  7  1  0
  7  8  2  0
  8  9  1  0
  9 10  2  0
 10 11  1  0
 10 12  1  0
 12 13  2  0
 13  7  1  0
  1 14  1  0
  1 15  1  0
  1 16  1  0
  2 17  1  0
  2 18  1  0
  3 19  1  0
  3 20  1  0
  4 21  1  0
  8 22  1  0
  9 23  1  0
 12 24  1  0
M  CHG  1   1   1
M  END
>  <meeko>  (5) 
{"is_sidechain": [false], "free_energy": -6.388, "intermolecular_energy": -7.566, "internal_energy": -0.299}

$$$$
lazabemide_out
     RDKit          3D

 24 24  0  0  0  0  0  0  0  0999 V2000
   38.1220   30.0900  -15.6840 N   0  0  0  0  0  0  0  0  0  0  0  0
   37.3000   28.8750  -15.6100 C   0  0  0  0  0  0  0  0  0  0  0  0
   37.9580   27.6940  -16.3390 C   0  0  0  0  0  0  0  0  0  0  0  0
   39.2960   27.4210  -15.8520 N   0  0  0  0  0  0  0  0  0  0  0  0
   39.5440   26.6320  -14.7520 C   0  0  0  0  0  0  0  0  0  0  0  0
   38.6760   26.0290  -14.1300 O   0  0  0  0  0  0  0  0  0  0  0  0
   40.9850   26.5740  -14.3440 C   0  0  0  0  0  0  0  0  0  0  0  0
   41.8810   25.8000  -15.0740 C   0  0  0  0  0  0  0  0  0  0  0  0
   43.2130   25.7660  -14.6630 C   0  0  0  0  0  0  0  0  0  0  0  0
   43.5990   26.5000  -13.5460 C   0  0  0  0  0  0  0  0  0  0  0  0
   45.2290   26.4840  -13.0110 Cl  0  0  0  0  0  0  0  0  0  0  0  0
   42.6360   27.2440  -12.8760 C   0  0  0  0  0  0  0  0  0  0  0  0
   41.3330   27.3010  -13.2430 N   0  0  0  0  0  0  0  0  0  0  0  0
   38.8390   29.9720  -16.3990 H   0  0  0  0  0  0  0  0  0  0  0  0
   38.5640   30.2560  -14.7810 H   0  0  0  0  0  0  0  0  0  0  0  0
   37.5310   30.8860  -15.9240 H   0  0  0  0  0  0  0  0  0  0  0  0
   37.1574   28.6058  -14.5530 H   0  0  0  0  0  0  0  0  0  0  0  0
   36.3371   29.0841  -16.0990 H   0  0  0  0  0  0  0  0  0  0  0  0
   37.3382   26.7975  -16.1907 H   0  0  0  0  0  0  0  0  0  0  0  0
   38.0357   27.9581  -17.4040 H   0  0  0  0  0  0  0  0  0  0  0  0
   40.0610   27.8170  -16.3300 H   0  0  0  0  0  0  0  0  0  0  0  0
   41.5473   25.2293  -15.9531 H   0  0  0  0  0  0  0  0  0  0  0  0
   43.9504   25.1655  -15.2158 H   0  0  0  0  0  0  0  0  0  0  0  0
   42.9503   27.8217  -11.9943 H   0  0  0  0  0  0  0  0  0  0  0  0
  1  2  1  0
  2  3  1  0
  3  4  1  0
  4  5  1  0
  5  6  2  0
  5  7  1  0
  7  8  2  0
  8  9  1  0
  9 10  2  0
 10 11  1  0
 10 12  1  0
 12 13  2  0
 13  7  1  0
  1 14  1  0
  1 15  1  0
  1 16  1  0
  2 17  1  0
  2 18  1  0
  3 19  1  0
  3 20  1  0
  4 21  1  0
  8 22  1  0
  9 23  1  0
 12 24  1  0
M  CHG  1   1   1
M  END
>  <meeko>  (6) 
{"is_sidechain": [false], "free_energy": -6.373, "intermolecular_energy": -7.678, "internal_energy": -0.168}

$$$$
lazabemide_out
     RDKit          3D

 24 24  0  0  0  0  0  0  0  0999 V2000
   46.9630   25.0120  -14.5690 N   0  0  0  0  0  0  0  0  0  0  0  0
   45.7460   24.7280  -13.7970 C   0  0  0  0  0  0  0  0  0  0  0  0
   45.0030   26.0150  -13.4070 C   0  0  0  0  0  0  0  0  0  0  0  0
   43.7830   26.2010  -14.1680 N   0  0  0  0  0  0  0  0  0  0  0  0
   42.5870   26.5540  -13.5860 C   0  0  0  0  0  0  0  0  0  0  0  0
   42.4530   26.8180  -12.3960 O   0  0  0  0  0  0  0  0  0  0  0  0
   41.4230   26.5770  -14.5300 C   0  0  0  0  0  0  0  0  0  0  0  0
   40.1750   26.9980  -14.0810 C   0  0  0  0  0  0  0  0  0  0  0  0
   39.1140   27.0020  -14.9860 C   0  0  0  0  0  0  0  0  0  0  0  0
   39.3350   26.5870  -16.2950 C   0  0  0  0  0  0  0  0  0  0  0  0
   38.0540   26.5790  -17.4370 Cl  0  0  0  0  0  0  0  0  0  0  0  0
   40.6130   26.1820  -16.6560 C   0  0  0  0  0  0  0  0  0  0  0  0
   41.6690   26.1620  -15.8060 N   0  0  0  0  0  0  0  0  0  0  0  0
   47.7580   24.5470  -14.1320 H   0  0  0  0  0  0  0  0  0  0  0  0
   47.1250   26.0180  -14.5890 H   0  0  0  0  0  0  0  0  0  0  0  0
   46.8490   24.6670  -15.5220 H   0  0  0  0  0  0  0  0  0  0  0  0
   45.0770   24.1013  -14.4050 H   0  0  0  0  0  0  0  0  0  0  0  0
   46.0413   24.2106  -12.8722 H   0  0  0  0  0  0  0  0  0  0  0  0
   44.7485   25.9659  -12.3380 H   0  0  0  0  0  0  0  0  0  0  0  0
   45.6669   26.8646  -13.6246 H   0  0  0  0  0  0  0  0  0  0  0  0
   43.8120   26.0690  -15.1430 H   0  0  0  0  0  0  0  0  0  0  0  0
   40.0291   27.3193  -13.0391 H   0  0  0  0  0  0  0  0  0  0  0  0
   38.1133   27.3298  -14.6681 H   0  0  0  0  0  0  0  0  0  0  0  0
   40.7787   25.8579  -17.6940 H   0  0  0  0  0  0  0  0  0  0  0  0
  1  2  1  0
  2  3  1  0
  3  4  1  0
  4  5  1  0
  5  6  2  0
  5  7  1  0
  7  8  2  0
  8  9  1  0
  9 10  2  0
 10 11  1  0
 10 12  1  0
 12 13  2  0
 13  7  1  0
  1 14  1  0
  1 15  1  0
  1 16  1  0
  2 17  1  0
  2 18  1  0
  3 19  1  0
  3 20  1  0
  4 21  1  0
  8 22  1  0
  9 23  1  0
 12 24  1  0
M  CHG  1   1   1
M  END
>  <meeko>  (7) 
{"is_sidechain": [false], "free_energy": -6.124, "intermolecular_energy": -7.396, "internal_energy": -0.151}

$$$$
lazabemide_out
     RDKit          3D

 24 24  0  0  0  0  0  0  0  0999 V2000
   46.3750   25.4720  -14.3550 N   0  0  0  0  0  0  0  0  0  0  0  0
   45.0930   25.2450  -13.6780 C   0  0  0  0  0  0  0  0  0  0  0  0
   44.5830   26.5130  -12.9770 C   0  0  0  0  0  0  0  0  0  0  0  0
   43.2920   26.9410  -13.4790 N   0  0  0  0  0  0  0  0  0  0  0  0
   42.1680   27.0060  -12.6880 C   0  0  0  0  0  0  0  0  0  0  0  0
   42.1620   26.7860  -11.4830 O   0  0  0  0  0  0  0  0  0  0  0  0
   40.9120   27.3560  -13.4270 C   0  0  0  0  0  0  0  0  0  0  0  0
   40.5350   26.6170  -14.5440 C   0  0  0  0  0  0  0  0  0  0  0  0
   39.3630   26.9750  -15.2090 C   0  0  0  0  0  0  0  0  0  0  0  0
   38.6160   28.0500  -14.7400 C   0  0  0  0  0  0  0  0  0  0  0  0
   37.1680   28.5190  -15.5320 Cl  0  0  0  0  0  0  0  0  0  0  0  0
   39.0680   28.7330  -13.6190 C   0  0  0  0  0  0  0  0  0  0  0  0
   40.2010   28.4180  -12.9460 N   0  0  0  0  0  0  0  0  0  0  0  0
   46.3530   25.0400  -15.2780 H   0  0  0  0  0  0  0  0  0  0  0  0
   47.1280   25.0620  -13.8040 H   0  0  0  0  0  0  0  0  0  0  0  0
   46.5340   26.4750  -14.4530 H   0  0  0  0  0  0  0  0  0  0  0  0
   44.3489   24.9268  -14.4230 H   0  0  0  0  0  0  0  0  0  0  0  0
   45.2443   24.4697  -12.9125 H   0  0  0  0  0  0  0  0  0  0  0  0
   44.4932   26.3092  -11.8998 H   0  0  0  0  0  0  0  0  0  0  0  0
   45.3043   27.3193  -13.1761 H   0  0  0  0  0  0  0  0  0  0  0  0
   43.2180   27.1970  -14.4270 H   0  0  0  0  0  0  0  0  0  0  0  0
   41.1461   25.7718  -14.8936 H   0  0  0  0  0  0  0  0  0  0  0  0
   39.0328   26.4131  -16.0951 H   0  0  0  0  0  0  0  0  0  0  0  0
   38.4700   29.5815  -13.2551 H   0  0  0  0  0  0  0  0  0  0  0  0
  1  2  1  0
  2  3  1  0
  3  4  1  0
  4  5  1  0
  5  6  2  0
  5  7  1  0
  7  8  2  0
  8  9  1  0
  9 10  2  0
 10 11  1  0
 10 12  1  0
 12 13  2  0
 13  7  1  0
  1 14  1  0
  1 15  1  0
  1 16  1  0
  2 17  1  0
  2 18  1  0
  3 19  1  0
  3 20  1  0
  4 21  1  0
  8 22  1  0
  9 23  1  0
 12 24  1  0
M  CHG  1   1   1
M  END
>  <meeko>  (8) 
{"is_sidechain": [false], "free_energy": -5.645, "intermolecular_energy": -6.832, "internal_energy": -0.138}

$$$$
lazabemide_out
     RDKit          3D

 24 24  0  0  0  0  0  0  0  0999 V2000
   49.3190   27.3410  -14.6560 N   0  0  0  0  0  0  0  0  0  0  0  0
   48.1180   26.5710  -15.0050 C   0  0  0  0  0  0  0  0  0  0  0  0
   47.4360   25.9810  -13.7620 C   0  0  0  0  0  0  0  0  0  0  0  0
   46.0260   26.3100  -13.6970 N   0  0  0  0  0  0  0  0  0  0  0  0
   45.0350   25.3550  -13.6940 C   0  0  0  0  0  0  0  0  0  0  0  0
   45.2460   24.1480  -13.6700 O   0  0  0  0  0  0  0  0  0  0  0  0
   43.6430   25.9080  -13.7430 C   0  0  0  0  0  0  0  0  0  0  0  0
   42.7870   25.5390  -14.7760 C   0  0  0  0  0  0  0  0  0  0  0  0
   41.5000   26.0770  -14.7920 C   0  0  0  0  0  0  0  0  0  0  0  0
   41.1180   26.9570  -13.7850 C   0  0  0  0  0  0  0  0  0  0  0  0
   39.5430   27.6380  -13.7700 Cl  0  0  0  0  0  0  0  0  0  0  0  0
   42.0390   27.2700  -12.7930 C   0  0  0  0  0  0  0  0  0  0  0  0
   43.2980   26.7700  -12.7440 N   0  0  0  0  0  0  0  0  0  0  0  0
   49.0780   28.3290  -14.5750 H   0  0  0  0  0  0  0  0  0  0  0  0
   50.0230   27.2210  -15.3840 H   0  0  0  0  0  0  0  0  0  0  0  0
   49.6900   27.0080  -13.7660 H   0  0  0  0  0  0  0  0  0  0  0  0
   47.4072   27.2342  -15.5197 H   0  0  0  0  0  0  0  0  0  0  0  0
   48.4237   25.7376  -15.6546 H   0  0  0  0  0  0  0  0  0  0  0  0
   47.5426   24.8865  -13.7866 H   0  0  0  0  0  0  0  0  0  0  0  0
   47.9226   26.4135  -12.8753 H   0  0  0  0  0  0  0  0  0  0  0  0
   45.7660   27.2590  -13.6510 H   0  0  0  0  0  0  0  0  0  0  0  0
   43.1166   24.8411  -15.5598 H   0  0  0  0  0  0  0  0  0  0  0  0
   40.7949   25.8081  -15.5924 H   0  0  0  0  0  0  0  0  0  0  0  0
   41.7278   27.9654  -11.9996 H   0  0  0  0  0  0  0  0  0  0  0  0
  1  2  1  0
  2  3  1  0
  3  4  1  0
  4  5  1  0
  5  6  2  0
  5  7  1  0
  7  8  2  0
  8  9  1  0
  9 10  2  0
 10 11  1  0
 10 12  1  0
 12 13  2  0
 13  7  1  0
  1 14  1  0
  1 15  1  0
  1 16  1  0
  2 17  1  0
  2 18  1  0
  3 19  1  0
  3 20  1  0
  4 21  1  0
  8 22  1  0
  9 23  1  0
 12 24  1  0
M  CHG  1   1   1
M  END
>  <meeko>  (9) 
{"is_sidechain": [false], "free_energy": -5.598, "intermolecular_energy": -6.776, "internal_energy": -0.138}

$$$$
