rasagiline_out
     RDKit          3D

 27 28  0  0  0  0  0  0  0  0999 V2000
   36.1050   29.3020  -17.3810 C   0  0  0  0  0  0  0  0  0  0  0  0
   36.8350   29.1780  -16.4350 C   0  0  0  0  0  0  0  0  0  0  0  0
   37.7300   29.0270  -15.2810 C   0  0  0  0  0  0  0  0  0  0  0  0
   38.7040   27.9800  -15.5570 N   0  0  0  0  0  0  0  0  0  0  0  0
   39.2100   27.3550  -14.3400 C   0  0  2  0  0  0  0  0  0  0  0  0
   39.4490   28.3410  -13.1740 C   0  0  0  0  0  0  0  0  0  0  0  0
   40.5570   27.7240  -12.3090 C   0  0  0  0  0  0  0  0  0  0  0  0
   41.3570   27.0000  -13.3450 C   0  0  0  0  0  0  0  0  0  0  0  0
   42.6530   26.5240  -13.2400 C   0  0  0  0  0  0  0  0  0  0  0  0
   43.1960   25.8380  -14.3300 C   0  0  0  0  0  0  0  0  0  0  0  0
   42.4400   25.6280  -15.4930 C   0  0  0  0  0  0  0  0  0  0  0  0
   41.1290   26.1000  -15.5830 C   0  0  0  0  0  0  0  0  0  0  0  0
   40.5990   26.7940  -14.5060 C   0  0  0  0  0  0  0  0  0  0  0  0
   35.4366   29.4155  -18.2472 H   0  0  0  0  0  0  0  0  0  0  0  0
   38.2542   29.9763  -15.0966 H   0  0  0  0  0  0  0  0  0  0  0  0
   37.1409   28.7554  -14.3926 H   0  0  0  0  0  0  0  0  0  0  0  0
   39.4880   28.3880  -16.0650 H   0  0  0  0  0  0  0  0  0  0  0  0
   38.2380   27.2580  -16.1070 H   0  0  0  0  0  0  0  0  0  0  0  0
   38.4270   26.6098  -14.1360 H   0  0  0  0  0  0  0  0  0  0  0  0
   39.7688   29.3194  -13.5619 H   0  0  0  0  0  0  0  0  0  0  0  0
   38.5298   28.5022  -12.5916 H   0  0  0  0  0  0  0  0  0  0  0  0
   41.1545   28.4980  -11.8051 H   0  0  0  0  0  0  0  0  0  0  0  0
   40.1916   27.0864  -11.4905 H   0  0  0  0  0  0  0  0  0  0  0  0
   43.2397   26.6816  -12.3230 H   0  0  0  0  0  0  0  0  0  0  0  0
   44.2271   25.4587  -14.2754 H   0  0  0  0  0  0  0  0  0  0  0  0
   42.8840   25.0867  -16.3415 H   0  0  0  0  0  0  0  0  0  0  0  0
   40.5297   25.9251  -16.4887 H   0  0  0  0  0  0  0  0  0  0  0  0
  1  2  3  0
  2  3  1  0
  3  4  1  0
  4  5  1  0
  5  6  1  0
  6  7  1  0
  7  8  1  0
  8  9  2  0
  9 10  1  0
 10 11  2  0
 11 12  1  0
 12 13  2  0
 13  5  1  0
 13  8  1  0
  1 14  1  0
  3 15  1  0
  3 16  1  0
  4 17  1  0
  4 18  1  0
  5 19  1  1
  6 20  1  0
  6 21  1  0
  7 22  1  0
  7 23  1  0
  9 24  1  0
 10 25  1  0
 11 26  1  0
 12 27  1  0
M  CHG  1   4   1
M  END
>  <meeko>  (1) 
{"is_sidechain": [false], "free_energy": -8.062, "intermolecular_energy": -9.005, "internal_energy": -0.163}

$$$$
rasagiline_out
     RDKit          3D

 27 28  0  0  0  0  0  0  0  0999 V2000
   36.8510   29.1940  -16.7520 C   0  0  0  0  0  0  0  0  0  0  0  0
   37.3440   28.2180  -17.2520 C   0  0  0  0  0  0  0  0  0  0  0  0
   37.9440   27.0250  -17.8620 C   0  0  0  0  0  0  0  0  0  0  0  0
   38.5480   26.2030  -16.8230 N   0  0  0  0  0  0  0  0  0  0  0  0
   39.9160   26.6070  -16.5200 C   0  0  2  0  0  0  0  0  0  0  0  0
   40.9750   25.5160  -16.8000 C   0  0  0  0  0  0  0  0  0  0  0  0
   42.1420   25.7940  -15.8410 C   0  0  0  0  0  0  0  0  0  0  0  0
   41.4150   26.3750  -14.6690 C   0  0  0  0  0  0  0  0  0  0  0  0
   41.8740   26.5210  -13.3710 C   0  0  0  0  0  0  0  0  0  0  0  0
   41.0320   27.1300  -12.4370 C   0  0  0  0  0  0  0  0  0  0  0  0
   39.7600   27.5910  -12.8110 C   0  0  0  0  0  0  0  0  0  0  0  0
   39.3130   27.4500  -14.1270 C   0  0  0  0  0  0  0  0  0  0  0  0
   40.1450   26.8320  -15.0480 C   0  0  0  0  0  0  0  0  0  0  0  0
   36.4000   30.0869  -16.2946 H   0  0  0  0  0  0  0  0  0  0  0  0
   37.1652   26.4470  -18.3810 H   0  0  0  0  0  0  0  0  0  0  0  0
   38.7154   27.3299  -18.5844 H   0  0  0  0  0  0  0  0  0  0  0  0
   38.5560   25.2320  -17.1370 H   0  0  0  0  0  0  0  0  0  0  0  0
   37.9940   26.3160  -15.9740 H   0  0  0  0  0  0  0  0  0  0  0  0
   40.0245   27.5013  -17.1512 H   0  0  0  0  0  0  0  0  0  0  0  0
   40.5539   24.5180  -16.6086 H   0  0  0  0  0  0  0  0  0  0  0  0
   41.3049   25.5380  -17.8491 H   0  0  0  0  0  0  0  0  0  0  0  0
   42.6715   24.8687  -15.5699 H   0  0  0  0  0  0  0  0  0  0  0  0
   42.9259   26.4442  -16.2566 H   0  0  0  0  0  0  0  0  0  0  0  0
   42.8748   26.1670  -13.0827 H   0  0  0  0  0  0  0  0  0  0  0  0
   41.3697   27.2495  -11.3970 H   0  0  0  0  0  0  0  0  0  0  0  0
   39.1101   28.0670  -12.0620 H   0  0  0  0  0  0  0  0  0  0  0  0
   38.3218   27.8215  -14.4263 H   0  0  0  0  0  0  0  0  0  0  0  0
  1  2  3  0
  2  3  1  0
  3  4  1  0
  4  5  1  0
  5  6  1  0
  6  7  1  0
  7  8  1  0
  8  9  2  0
  9 10  1  0
 10 11  2  0
 11 12  1  0
 12 13  2  0
 13  5  1  0
 13  8  1  0
  1 14  1  0
  3 15  1  0
  3 16  1  0
  4 17  1  0
  4 18  1  0
  5 19  1  6
  6 20  1  0
  6 21  1  0
  7 22  1  0
  7 23  1  0
  9 24  1  0
 10 25  1  0
 11 26  1  0
 12 27  1  0
M  CHG  1   4   1
M  END
>  <meeko>  (2) 
{"is_sidechain": [false], "free_energy": -7.683, "intermolecular_energy": -8.325, "internal_energy": -0.42}

$$$$
rasagiline_out
     RDKit          3D

 27 28  0  0  0  0  0  0  0  0999 V2000
   43.4070   26.9760  -12.6780 C   0  0  0  0  0  0  0  0  0  0  0  0
   42.2150   26.9970  -12.5370 C   0  0  0  0  0  0  0  0  0  0  0  0
   40.7560   27.0210  -12.3660 C   0  0  0  0  0  0  0  0  0  0  0  0
   40.1580   27.8210  -13.4260 N   0  0  0  0  0  0  0  0  0  0  0  0
   39.4890   27.0020  -14.4300 C   0  0  2  0  0  0  0  0  0  0  0  0
   40.4200   26.4870  -15.5510 C   0  0  0  0  0  0  0  0  0  0  0  0
   39.5330   26.2880  -16.7890 C   0  0  0  0  0  0  0  0  0  0  0  0
   38.5140   27.3660  -16.5860 C   0  0  0  0  0  0  0  0  0  0  0  0
   37.6450   27.9030  -17.5200 C   0  0  0  0  0  0  0  0  0  0  0  0
   36.7440   28.8830  -17.0980 C   0  0  0  0  0  0  0  0  0  0  0  0
   36.7140   29.3010  -15.7590 C   0  0  0  0  0  0  0  0  0  0  0  0
   37.5860   28.7430  -14.8220 C   0  0  0  0  0  0  0  0  0  0  0  0
   38.4900   27.7810  -15.2470 C   0  0  0  0  0  0  0  0  0  0  0  0
   44.4992   26.9568  -12.8072 H   0  0  0  0  0  0  0  0  0  0  0  0
   40.3638   25.9945  -12.4151 H   0  0  0  0  0  0  0  0  0  0  0  0
   40.5077   27.4610  -11.3889 H   0  0  0  0  0  0  0  0  0  0  0  0
   40.8930   28.3610  -13.8820 H   0  0  0  0  0  0  0  0  0  0  0  0
   39.4570   28.4280  -13.0010 H   0  0  0  0  0  0  0  0  0  0  0  0
   39.0611   26.2017  -13.8084 H   0  0  0  0  0  0  0  0  0  0  0  0
   41.2078   27.2254  -15.7613 H   0  0  0  0  0  0  0  0  0  0  0  0
   40.9168   25.5498  -15.2597 H   0  0  0  0  0  0  0  0  0  0  0  0
   40.0993   26.4375  -17.7201 H   0  0  0  0  0  0  0  0  0  0  0  0
   39.1106   25.2770  -16.8866 H   0  0  0  0  0  0  0  0  0  0  0  0
   37.6636   27.5667  -18.5672 H   0  0  0  0  0  0  0  0  0  0  0  0
   36.0500   29.3323  -17.8236 H   0  0  0  0  0  0  0  0  0  0  0  0
   35.9978   30.0745  -15.4448 H   0  0  0  0  0  0  0  0  0  0  0  0
   37.5565   29.0598  -13.7690 H   0  0  0  0  0  0  0  0  0  0  0  0
  1  2  3  0
  2  3  1  0
  3  4  1  0
  4  5  1  0
  5  6  1  0
  6  7  1  0
  7  8  1  0
  8  9  2  0
  9 10  1  0
 10 11  2  0
 11 12  1  0
 12 13  2  0
 13  5  1  0
 13  8  1  0
  1 14  1  0
  3 15  1  0
  3 16  1  0
  4 17  1  0
  4 18  1  0
  5 19  1  1
  6 20  1  0
  6 21  1  0
  7 22  1  0
  7 23  1  0
  9 24  1  0
 10 25  1  0
 11 26  1  0
 12 27  1  0
M  CHG  1   4   1
M  END
>  <meeko>  (3) 
{"is_sidechain": [false], "free_energy": -7.615, "intermolecular_energy": -8.475, "internal_energy": -0.194}

$$$$
rasagiline_out
     RDKit          3D

 27 28  0  0  0  0  0  0  0  0999 V2000
   44.1420   27.0720  -13.3040 C   0  0  0  0  0  0  0  0  0  0  0  0
   43.3840   26.3230  -13.8570 C   0  0  0  0  0  0  0  0  0  0  0  0
   42.4560   25.4090  -14.5350 C   0  0  0  0  0  0  0  0  0  0  0  0
   41.1090   25.6200  -14.0230 N   0  0  0  0  0  0  0  0  0  0  0  0
   40.7050   27.0200  -14.0790 C   0  0  2  0  0  0  0  0  0  0  0  0
   40.0400   27.5400  -12.7840 C   0  0  0  0  0  0  0  0  0  0  0  0
   39.1050   28.6810  -13.2090 C   0  0  0  0  0  0  0  0  0  0  0  0
   38.6930   28.2190  -14.5720 C   0  0  0  0  0  0  0  0  0  0  0  0
   37.6150   28.6490  -15.3270 C   0  0  0  0  0  0  0  0  0  0  0  0
   37.4400   28.1030  -16.6010 C   0  0  0  0  0  0  0  0  0  0  0  0
   38.3420   27.1520  -17.1030 C   0  0  0  0  0  0  0  0  0  0  0  0
   39.4330   26.7350  -16.3390 C   0  0  0  0  0  0  0  0  0  0  0  0
   39.5960   27.2680  -15.0680 C   0  0  0  0  0  0  0  0  0  0  0  0
   44.8365   27.7583  -12.7973 H   0  0  0  0  0  0  0  0  0  0  0  0
   42.4723   25.6055  -15.6172 H   0  0  0  0  0  0  0  0  0  0  0  0
   42.7617   24.3691  -14.3475 H   0  0  0  0  0  0  0  0  0  0  0  0
   41.0750   25.3090  -13.0520 H   0  0  0  0  0  0  0  0  0  0  0  0
   40.4660   25.0870  -14.6090 H   0  0  0  0  0  0  0  0  0  0  0  0
   41.6597   27.5129  -14.3148 H   0  0  0  0  0  0  0  0  0  0  0  0
   39.4650   26.7359  -12.3015 H   0  0  0  0  0  0  0  0  0  0  0  0
   40.7916   27.8873  -12.0598 H   0  0  0  0  0  0  0  0  0  0  0  0
   38.2411   28.7683  -12.5337 H   0  0  0  0  0  0  0  0  0  0  0  0
   39.5681   29.6785  -13.1888 H   0  0  0  0  0  0  0  0  0  0  0  0
   36.9147   29.4008  -14.9340 H   0  0  0  0  0  0  0  0  0  0  0  0
   36.5863   28.4218  -17.2171 H   0  0  0  0  0  0  0  0  0  0  0  0
   38.1876   26.7315  -18.1077 H   0  0  0  0  0  0  0  0  0  0  0  0
   40.1484   25.9996  -16.7358 H   0  0  0  0  0  0  0  0  0  0  0  0
  1  2  3  0
  2  3  1  0
  3  4  1  0
  4  5  1  0
  5  6  1  0
  6  7  1  0
  7  8  1  0
  8  9  2  0
  9 10  1  0
 10 11  2  0
 11 12  1  0
 12 13  2  0
 13  5  1  0
 13  8  1  0
  1 14  1  0
  3 15  1  0
  3 16  1  0
  4 17  1  0
  4 18  1  0
  5 19  1  6
  6 20  1  0
  6 21  1  0
  7 22  1  0
  7 23  1  0
  9 24  1  0
 10 25  1  0
 11 26  1  0
 12 27  1  0
M  CHG  1   4   1
M  END
>  <meeko>  (4) 
{"is_sidechain": [false], "free_energy": -7.344, "intermolecular_energy": -8.063, "internal_energy": -0.303}

$$$$
rasagiline_out
     RDKit          3D

 27 28  0  0  0  0  0  0  0  0999 V2000
   47.7810   26.2640  -14.5600 C   0  0  0  0  0  0  0  0  0  0  0  0
   46.8720   25.6340  -14.0910 C   0  0  0  0  0  0  0  0  0  0  0  0
   45.7610   24.8630  -13.5190 C   0  0  0  0  0  0  0  0  0  0  0  0
   44.5830   25.0150  -14.3600 N   0  0  0  0  0  0  0  0  0  0  0  0
   43.8420   26.2360  -14.0650 C   0  0  2  0  0  0  0  0  0  0  0  0
   43.4880   26.4160  -12.5710 C   0  0  0  0  0  0  0  0  0  0  0  0
   42.2120   27.2710  -12.5310 C   0  0  0  0  0  0  0  0  0  0  0  0
   41.5420   26.8390  -13.7980 C   0  0  0  0  0  0  0  0  0  0  0  0
   40.2150   27.0060  -14.1580 C   0  0  0  0  0  0  0  0  0  0  0  0
   39.8090   26.5550  -15.4160 C   0  0  0  0  0  0  0  0  0  0  0  0
   40.7280   25.9590  -16.2940 C   0  0  0  0  0  0  0  0  0  0  0  0
   42.0660   25.8070  -15.9260 C   0  0  0  0  0  0  0  0  0  0  0  0
   42.4620   26.2430  -14.6700 C   0  0  0  0  0  0  0  0  0  0  0  0
   48.6133   26.8409  -14.9895 H   0  0  0  0  0  0  0  0  0  0  0  0
   46.0402   23.8003  -13.4673 H   0  0  0  0  0  0  0  0  0  0  0  0
   45.5399   25.2331  -12.5070 H   0  0  0  0  0  0  0  0  0  0  0  0
   43.9680   24.2150  -14.2100 H   0  0  0  0  0  0  0  0  0  0  0  0
   44.8960   25.0680  -15.3300 H   0  0  0  0  0  0  0  0  0  0  0  0
   44.5256   27.0048  -14.4543 H   0  0  0  0  0  0  0  0  0  0  0  0
   43.3060   25.4378  -12.1020 H   0  0  0  0  0  0  0  0  0  0  0  0
   44.3096   26.8973  -12.0203 H   0  0  0  0  0  0  0  0  0  0  0  0
   41.5971   27.0389  -11.6489 H   0  0  0  0  0  0  0  0  0  0  0  0
   42.3925   28.3537  -12.4587 H   0  0  0  0  0  0  0  0  0  0  0  0
   39.4995   27.4815  -13.4710 H   0  0  0  0  0  0  0  0  0  0  0  0
   38.7584   26.6680  -15.7219 H   0  0  0  0  0  0  0  0  0  0  0  0
   40.3908   25.6087  -17.2807 H   0  0  0  0  0  0  0  0  0  0  0  0
   42.7906   25.3514  -16.6170 H   0  0  0  0  0  0  0  0  0  0  0  0
  1  2  3  0
  2  3  1  0
  3  4  1  0
  4  5  1  0
  5  6  1  0
  6  7  1  0
  7  8  1  0
  8  9  2  0
  9 10  1  0
 10 11  2  0
 11 12  1  0
 12 13  2  0
 13  5  1  0
 13  8  1  0
  1 14  1  0
  3 15  1  0
  3 16  1  0
  4 17  1  0
  4 18  1  0
  5 19  1  6
  6 20  1  0
  6 21  1  0
  7 22  1  0
  7 23  1  0
  9 24  1  0
 10 25  1  0
 11 26  1  0
 12 27  1  0
M  CHG  1   4   1
M  END
>  <meeko>  (5) 
{"is_sidechain": [false], "free_energy": -7.046, "intermolecular_energy": -7.779, "internal_energy": -0.253}

$$$$
rasagiline_out
     RDKit          3D

 27 28  0  0  0  0  0  0  0  0999 V2000
   46.7610   25.2310  -13.7790 C   0  0  0  0  0  0  0  0  0  0  0  0
   45.5970   24.9810  -13.9380 C   0  0  0  0  0  0  0  0  0  0  0  0
   44.1750   24.6740  -14.1350 C   0  0  0  0  0  0  0  0  0  0  0  0
   43.5600   25.7230  -14.9360 N   0  0  0  0  0  0  0  0  0  0  0  0
   42.1250   25.5240  -15.1070 C   0  0  2  0  0  0  0  0  0  0  0  0
   41.6060   25.8480  -16.5260 C   0  0  0  0  0  0  0  0  0  0  0  0
   40.1350   26.2590  -16.3630 C   0  0  0  0  0  0  0  0  0  0  0  0
   40.1670   26.8960  -15.0090 C   0  0  0  0  0  0  0  0  0  0  0  0
   39.2290   27.7440  -14.4450 C   0  0  0  0  0  0  0  0  0  0  0  0
   39.4440   28.1950  -13.1410 C   0  0  0  0  0  0  0  0  0  0  0  0
   40.5770   27.7870  -12.4190 C   0  0  0  0  0  0  0  0  0  0  0  0
   41.5100   26.9210  -12.9920 C   0  0  0  0  0  0  0  0  0  0  0  0
   41.3010   26.4870  -14.2930 C   0  0  0  0  0  0  0  0  0  0  0  0
   47.8270   25.4600  -13.6334 H   0  0  0  0  0  0  0  0  0  0  0  0
   44.0764   23.7097  -14.6550 H   0  0  0  0  0  0  0  0  0  0  0  0
   43.6730   24.6158  -13.1580 H   0  0  0  0  0  0  0  0  0  0  0  0
   44.0010   25.7330  -15.8550 H   0  0  0  0  0  0  0  0  0  0  0  0
   43.6950   26.6080  -14.4460 H   0  0  0  0  0  0  0  0  0  0  0  0
   42.0168   24.4657  -14.8271 H   0  0  0  0  0  0  0  0  0  0  0  0
   42.1859   26.6735  -16.9645 H   0  0  0  0  0  0  0  0  0  0  0  0
   41.7074   24.9819  -17.1965 H   0  0  0  0  0  0  0  0  0  0  0  0
   39.8268   26.9747  -17.1394 H   0  0  0  0  0  0  0  0  0  0  0  0
   39.4185   25.4298  -16.4581 H   0  0  0  0  0  0  0  0  0  0  0  0
   38.3374   28.0544  -15.0095 H   0  0  0  0  0  0  0  0  0  0  0  0
   38.7180   28.8771  -12.6745 H   0  0  0  0  0  0  0  0  0  0  0  0
   40.7308   28.1529  -11.3931 H   0  0  0  0  0  0  0  0  0  0  0  0
   42.3920   26.5898  -12.4241 H   0  0  0  0  0  0  0  0  0  0  0  0
  1  2  3  0
  2  3  1  0
  3  4  1  0
  4  5  1  0
  5  6  1  0
  6  7  1  0
  7  8  1  0
  8  9  2  0
  9 10  1  0
 10 11  2  0
 11 12  1  0
 12 13  2  0
 13  5  1  0
 13  8  1  0
  1 14  1  0
  3 15  1  0
  3 16  1  0
  4 17  1  0
  4 18  1  0
  5 19  1  1
  6 20  1  0
  6 21  1  0
  7 22  1  0
  7 23  1  0
  9 24  1  0
 10 25  1  0
 11 26  1  0
 12 27  1  0
M  CHG  1   4   1
M  END
>  <meeko>  (6) 
{"is_sidechain": [false], "free_energy": -7.007, "intermolecular_energy": -7.817, "internal_energy": -0.172}

$$$$
rasagiline_out
     RDKit          3D

 27 28  0  0  0  0  0  0  0  0999 V2000
   37.9520   29.1850  -15.1770 C   0  0  0  0  0  0  0  0  0  0  0  0
   38.5980   28.8350  -14.2270 C   0  0  0  0  0  0  0  0  0  0  0  0
   39.3890   28.4070  -13.0660 C   0  0  0  0  0  0  0  0  0  0  0  0
   39.8980   27.0620  -13.2970 N   0  0  0  0  0  0  0  0  0  0  0  0
   40.9320   27.0270  -14.3250 C   0  0  2  0  0  0  0  0  0  0  0  0
   40.7060   25.9540  -15.4140 C   0  0  0  0  0  0  0  0  0  0  0  0
   42.0970   25.5830  -15.9470 C   0  0  0  0  0  0  0  0  0  0  0  0
   42.9330   25.7760  -14.7210 C   0  0  0  0  0  0  0  0  0  0  0  0
   44.2070   25.2930  -14.4740 C   0  0  0  0  0  0  0  0  0  0  0  0
   44.8190   25.6300  -13.2650 C   0  0  0  0  0  0  0  0  0  0  0  0
   44.1620   26.4470  -12.3320 C   0  0  0  0  0  0  0  0  0  0  0  0
   42.8830   26.9390  -12.5960 C   0  0  0  0  0  0  0  0  0  0  0  0
   42.2710   26.5900  -13.7910 C   0  0  0  0  0  0  0  0  0  0  0  0
   37.3603   29.5056  -16.0471 H   0  0  0  0  0  0  0  0  0  0  0  0
   40.2320   29.0986  -12.9211 H   0  0  0  0  0  0  0  0  0  0  0  0
   38.7545   28.4106  -12.1675 H   0  0  0  0  0  0  0  0  0  0  0  0
   39.1250   26.4660  -13.5900 H   0  0  0  0  0  0  0  0  0  0  0  0
   40.3150   26.7330  -12.4260 H   0  0  0  0  0  0  0  0  0  0  0  0
   40.8958   28.0583  -14.7059 H   0  0  0  0  0  0  0  0  0  0  0  0
   40.2153   25.0696  -14.9815 H   0  0  0  0  0  0  0  0  0  0  0  0
   40.0566   26.3304  -16.2181 H   0  0  0  0  0  0  0  0  0  0  0  0
   42.1302   24.5413  -16.2988 H   0  0  0  0  0  0  0  0  0  0  0  0
   42.4224   26.1743  -16.8156 H   0  0  0  0  0  0  0  0  0  0  0  0
   44.7234   24.6604  -15.2109 H   0  0  0  0  0  0  0  0  0  0  0  0
   45.8271   25.2510  -13.0414 H   0  0  0  0  0  0  0  0  0  0  0  0
   44.6594   26.7017  -11.3845 H   0  0  0  0  0  0  0  0  0  0  0  0
   42.3710   27.5898  -11.8718 H   0  0  0  0  0  0  0  0  0  0  0  0
  1  2  3  0
  2  3  1  0
  3  4  1  0
  4  5  1  0
  5  6  1  0
  6  7  1  0
  7  8  1  0
  8  9  2  0
  9 10  1  0
 10 11  2  0
 11 12  1  0
 12 13  2  0
 13  5  1  0
 13  8  1  0
  1 14  1  0
  3 15  1  0
  3 16  1  0
  4 17  1  0
  4 18  1  0
  5 19  1  6
  6 20  1  0
  6 21  1  0
  7 22  1  0
  7 23  1  0
  9 24  1  0
 10 25  1  0
 11 26  1  0
 12 27  1  0
M  CHG  1   4   1
M  END
>  <meeko>  (7) 
{"is_sidechain": [false], "free_energy": -6.838, "intermolecular_energy": -7.47, "internal_energy": -0.33}

$$$$
rasagiline_out
     RDKit          3D

 27 28  0  0  0  0  0  0  0  0999 V2000
   45.9710   24.6570  -13.6440 C   0  0  0  0  0  0  0  0  0  0  0  0
   45.2420   25.5780  -13.3930 C   0  0  0  0  0  0  0  0  0  0  0  0
   44.3510   26.7040  -13.0840 C   0  0  0  0  0  0  0  0  0  0  0  0
   42.9980   26.2060  -12.8760 N   0  0  0  0  0  0  0  0  0  0  0  0
   41.9840   27.2080  -13.1850 C   0  0  2  0  0  0  0  0  0  0  0  0
   40.8880   27.3540  -12.1040 C   0  0  0  0  0  0  0  0  0  0  0  0
   39.6310   27.8530  -12.8310 C   0  0  0  0  0  0  0  0  0  0  0  0
   39.8040   27.2100  -14.1720 C   0  0  0  0  0  0  0  0  0  0  0  0
   38.8450   27.0160  -15.1520 C   0  0  0  0  0  0  0  0  0  0  0  0
   39.2390   26.4230  -16.3540 C   0  0  0  0  0  0  0  0  0  0  0  0
   40.5750   26.0460  -16.5630 C   0  0  0  0  0  0  0  0  0  0  0  0
   41.5360   26.2590  -15.5730 C   0  0  0  0  0  0  0  0  0  0  0  0
   41.1380   26.8340  -14.3750 C   0  0  0  0  0  0  0  0  0  0  0  0
   46.6386   23.8135  -13.8739 H   0  0  0  0  0  0  0  0  0  0  0  0
   44.7006   27.2092  -12.1716 H   0  0  0  0  0  0  0  0  0  0  0  0
   44.3558   27.4174  -13.9213 H   0  0  0  0  0  0  0  0  0  0  0  0
   42.8980   25.9300  -11.9000 H   0  0  0  0  0  0  0  0  0  0  0  0
   42.8560   25.4150  -13.5050 H   0  0  0  0  0  0  0  0  0  0  0  0
   42.6006   28.1096  -13.3152 H   0  0  0  0  0  0  0  0  0  0  0  0
   40.6918   26.3826  -11.6266 H   0  0  0  0  0  0  0  0  0  0  0  0
   41.1968   28.0530  -11.3128 H   0  0  0  0  0  0  0  0  0  0  0  0
   38.7126   27.5086  -12.3331 H   0  0  0  0  0  0  0  0  0  0  0  0
   39.5292   28.9478  -12.8623 H   0  0  0  0  0  0  0  0  0  0  0  0
   37.8008   27.3207  -14.9884 H   0  0  0  0  0  0  0  0  0  0  0  0
   38.4945   26.2497  -17.1450 H   0  0  0  0  0  0  0  0  0  0  0  0
   40.8672   25.5787  -17.5150 H   0  0  0  0  0  0  0  0  0  0  0  0
   42.5861   25.9770  -15.7394 H   0  0  0  0  0  0  0  0  0  0  0  0
  1  2  3  0
  2  3  1  0
  3  4  1  0
  4  5  1  0
  5  6  1  0
  6  7  1  0
  7  8  1  0
  8  9  2  0
  9 10  1  0
 10 11  2  0
 11 12  1  0
 12 13  2  0
 13  5  1  0
 13  8  1  0
  1 14  1  0
  3 15  1  0
  3 16  1  0
  4 17  1  0
  4 18  1  0
  5 19  1  6
  6 20  1  0
  6 21  1  0
  7 22  1  0
  7 23  1  0
  9 24  1  0
 10 25  1  0
 11 26  1  0
 12 27  1  0
M  CHG  1   4   1
M  END
>  <meeko>  (8) 
{"is_sidechain": [false], "free_energy": -6.682, "intermolecular_energy": -7.404, "internal_energy": -0.222}

$$$$
rasagiline_out
     RDKit          3D

 27 28  0  0  0  0  0  0  0  0999 V2000
   42.2910   25.4740  -15.9690 C   0  0  0  0  0  0  0  0  0  0  0  0
   41.3930   25.8770  -16.6570 C   0  0  0  0  0  0  0  0  0  0  0  0
   40.2950   26.3730  -17.4970 C   0  0  0  0  0  0  0  0  0  0  0  0
   39.0490   25.7400  -17.0870 N   0  0  0  0  0  0  0  0  0  0  0  0
   38.1630   26.6590  -16.3830 C   0  0  2  0  0  0  0  0  0  0  0  0
   37.9730   28.0210  -17.0890 C   0  0  0  0  0  0  0  0  0  0  0  0
   37.6490   29.0370  -15.9830 C   0  0  0  0  0  0  0  0  0  0  0  0
   38.4260   28.4680  -14.8380 C   0  0  0  0  0  0  0  0  0  0  0  0
   38.7970   29.1010  -13.6630 C   0  0  0  0  0  0  0  0  0  0  0  0
   39.4940   28.3610  -12.7050 C   0  0  0  0  0  0  0  0  0  0  0  0
   39.7970   27.0080  -12.9250 C   0  0  0  0  0  0  0  0  0  0  0  0
   39.4050   26.3760  -14.1070 C   0  0  0  0  0  0  0  0  0  0  0  0
   38.7280   27.1180  -15.0630 C   0  0  0  0  0  0  0  0  0  0  0  0
   43.1136   25.1049  -15.3388 H   0  0  0  0  0  0  0  0  0  0  0  0
   40.2081   27.4635  -17.3814 H   0  0  0  0  0  0  0  0  0  0  0  0
   40.5004   26.1323  -18.5505 H   0  0  0  0  0  0  0  0  0  0  0  0
   39.2670   24.9580  -16.4690 H   0  0  0  0  0  0  0  0  0  0  0  0
   38.5660   25.4270  -17.9300 H   0  0  0  0  0  0  0  0  0  0  0  0
   37.2407   26.0634  -16.3144 H   0  0  0  0  0  0  0  0  0  0  0  0
   38.8955   28.3102  -17.6138 H   0  0  0  0  0  0  0  0  0  0  0  0
   37.1690   27.9748  -17.8383 H   0  0  0  0  0  0  0  0  0  0  0  0
   37.9981   30.0463  -16.2465 H   0  0  0  0  0  0  0  0  0  0  0  0
   36.5747   29.1642  -15.7839 H   0  0  0  0  0  0  0  0  0  0  0  0
   38.5493   30.1585  -13.4890 H   0  0  0  0  0  0  0  0  0  0  0  0
   39.8089   28.8436  -11.7680 H   0  0  0  0  0  0  0  0  0  0  0  0
   40.3477   26.4410  -12.1600 H   0  0  0  0  0  0  0  0  0  0  0  0
   39.6285   25.3123  -14.2761 H   0  0  0  0  0  0  0  0  0  0  0  0
  1  2  3  0
  2  3  1  0
  3  4  1  0
  4  5  1  0
  5  6  1  0
  6  7  1  0
  7  8  1  0
  8  9  2  0
  9 10  1  0
 10 11  2  0
 11 12  1  0
 12 13  2  0
 13  5  1  0
 13  8  1  0
  1 14  1  0
  3 15  1  0
  3 16  1  0
  4 17  1  0
  4 18  1  0
  5 19  1  1
  6 20  1  0
  6 21  1  0
  7 22  1  0
  7 23  1  0
  9 24  1  0
 10 25  1  0
 11 26  1  0
 12 27  1  0
M  CHG  1   4   1
M  END
>  <meeko>  (9) 
{"is_sidechain": [false], "free_energy": -6.227, "intermolecular_energy": -7.028, "internal_energy": -0.09}

$$$$
