cand_050_out
     RDKit          3D

 38 40  0  0  0  0  0  0  0  0999 V2000
   33.4140   32.4890  -17.8340 C   0  0  0  0  0  0  0  0  0  0  0  0
   33.1970   31.5730  -16.6380 C   0  0  0  0  0  0  0  0  0  0  0  0
   34.4290   30.7530  -16.3210 C   0  0  0  0  0  0  0  0  0  0  0  0
   35.2200   30.3030  -17.3920 C   0  0  0  0  0  0  0  0  0  0  0  0
   36.3640   29.5350  -17.1680 C   0  0  0  0  0  0  0  0  0  0  0  0
   36.7550   29.1960  -15.8690 C   0  0  0  0  0  0  0  0  0  0  0  0
   37.9600   28.3660  -15.6550 C   0  0  0  0  0  0  0  0  0  0  0  0
   38.5040   28.5180  -14.3850 O   0  0  0  0  0  0  0  0  0  0  0  0
   39.6270   27.8040  -14.0560 C   0  0  0  0  0  0  0  0  0  0  0  0
   40.1490   27.9980  -12.7760 C   0  0  0  0  0  0  0  0  0  0  0  0
   41.2910   27.3000  -12.3750 C   0  0  0  0  0  0  0  0  0  0  0  0
   41.9080   26.4070  -13.2530 C   0  0  0  0  0  0  0  0  0  0  0  0
   41.3850   26.2150  -14.5300 C   0  0  0  0  0  0  0  0  0  0  0  0
   42.0410   25.3260  -15.3380 O   0  0  0  0  0  0  0  0  0  0  0  0
   40.2440   26.9150  -14.9310 C   0  0  0  0  0  0  0  0  0  0  0  0
   39.6630   26.7420  -16.2620 C   0  0  0  0  0  0  0  0  0  0  0  0
   40.1440   25.9700  -17.0890 O   0  0  0  0  0  0  0  0  0  0  0  0
   38.4570   27.5360  -16.5910 C   0  0  0  0  0  0  0  0  0  0  0  0
   37.9060   27.3580  -17.8460 O   0  0  0  0  0  0  0  0  0  0  0  0
   35.9580   29.6300  -14.8000 C   0  0  0  0  0  0  0  0  0  0  0  0
   34.7960   30.4050  -15.0030 C   0  0  0  0  0  0  0  0  0  0  0  0
   33.9970   30.8520  -13.7970 C   0  0  0  0  0  0  0  0  0  0  0  0
   33.8950   29.9000  -12.8250 F   0  0  0  0  0  0  0  0  0  0  0  0
   32.7130   31.1900  -14.1060 F   0  0  0  0  0  0  0  0  0  0  0  0
   34.5360   31.9440  -13.1860 F   0  0  0  0  0  0  0  0  0  0  0  0
   33.6541   33.5027  -17.4807 H   0  0  0  0  0  0  0  0  0  0  0  0
   34.2463   32.1061  -18.4428 H   0  0  0  0  0  0  0  0  0  0  0  0
   32.4984   32.5202  -18.4428 H   0  0  0  0  0  0  0  0  0  0  0  0
   32.9441   32.1874  -15.7614 H   0  0  0  0  0  0  0  0  0  0  0  0
   32.3809   30.8783  -16.8857 H   0  0  0  0  0  0  0  0  0  0  0  0
   34.9333   30.5599  -18.4224 H   0  0  0  0  0  0  0  0  0  0  0  0
   36.9649   29.1925  -18.0234 H   0  0  0  0  0  0  0  0  0  0  0  0
   39.6616   28.7000  -12.0834 H   0  0  0  0  0  0  0  0  0  0  0  0
   41.7041   27.4541  -11.3672 H   0  0  0  0  0  0  0  0  0  0  0  0
   42.8059   25.8557  -12.9370 H   0  0  0  0  0  0  0  0  0  0  0  0
   42.5840   25.6380  -16.0340 H   0  0  0  0  0  0  0  0  0  0  0  0
   37.1390   27.8360  -18.0930 H   0  0  0  0  0  0  0  0  0  0  0  0
   36.2467   29.3587  -13.7738 H   0  0  0  0  0  0  0  0  0  0  0  0
  1  2  1  0
  2  3  1  0
  3  4  2  0
  4  5  1  0
  5  6  2  0
  6  7  1  0
  7  8  1  0
  8  9  1  0
  9 10  2  0
 10 11  1  0
 11 12  2  0
 12 13  1  0
 13 14  1  0
 13 15  2  0
 15 16  1  0
 16 17  2  0
 16 18  1  0
 18 19  1  0
  6 20  1  0
 20 21  2  0
 21 22  1  0
 22 23  1  0
 22 24  1  0
 22 25  1  0
 21  3  1  0
 18  7  2  0
 15  9  1  0
  1 26  1  0
  1 27  1  0
  1 28  1  0
  2 29  1  0
  2 30  1  0
  4 31  1  0
  5 32  1  0
 10 33  1  0
 11 34  1  0
 12 35  1  0
 14 36  1  0
 19 37  1  0
 20 38  1  0
M  END
>  <meeko>  (1) 
{"is_sidechain": [false], "free_energy": -11.365, "intermolecular_energy": -14.022, "internal_energy": 0.324}

$$$$
cand_050_out
     RDKit          3D

 38 40  0  0  0  0  0  0  0  0999 V2000
   31.7730   31.0390  -15.1380 C   0  0  0  0  0  0  0  0  0  0  0  0
   33.0090   31.8050  -15.5850 C   0  0  0  0  0  0  0  0  0  0  0  0
   34.2450   30.9310  -15.5940 C   0  0  0  0  0  0  0  0  0  0  0  0
   34.8600   30.6410  -14.3640 C   0  0  0  0  0  0  0  0  0  0  0  0
   36.0090   29.8480  -14.3030 C   0  0  0  0  0  0  0  0  0  0  0  0
   36.5750   29.3200  -15.4670 C   0  0  0  0  0  0  0  0  0  0  0  0
   37.8010   28.4980  -15.3820 C   0  0  0  0  0  0  0  0  0  0  0  0
   38.4360   28.5980  -14.1490 O   0  0  0  0  0  0  0  0  0  0  0  0
   39.5880   27.8850  -13.9380 C   0  0  0  0  0  0  0  0  0  0  0  0
   40.2010   28.0270  -12.6930 C   0  0  0  0  0  0  0  0  0  0  0  0
   41.3770   27.3260  -12.4110 C   0  0  0  0  0  0  0  0  0  0  0  0
   41.9370   26.4860  -13.3740 C   0  0  0  0  0  0  0  0  0  0  0  0
   41.3240   26.3460  -14.6160 C   0  0  0  0  0  0  0  0  0  0  0  0
   41.9280   25.5070  -15.5130 O   0  0  0  0  0  0  0  0  0  0  0  0
   40.1490   27.0480  -14.8980 C   0  0  0  0  0  0  0  0  0  0  0  0
   39.4730   26.9300  -16.1910 C   0  0  0  0  0  0  0  0  0  0  0  0
   39.9000   26.2050  -17.0870 O   0  0  0  0  0  0  0  0  0  0  0  0
   38.2370   27.7210  -16.3910 C   0  0  0  0  0  0  0  0  0  0  0  0
   37.5970   27.5950  -17.6100 O   0  0  0  0  0  0  0  0  0  0  0  0
   35.9720   29.6220  -16.6970 C   0  0  0  0  0  0  0  0  0  0  0  0
   34.8120   30.4220  -16.7820 C   0  0  0  0  0  0  0  0  0  0  0  0
   34.2080   30.6900  -18.1440 C   0  0  0  0  0  0  0  0  0  0  0  0
   32.8440   30.6680  -18.1520 F   0  0  0  0  0  0  0  0  0  0  0  0
   34.5880   29.7760  -19.0820 F   0  0  0  0  0  0  0  0  0  0  0  0
   34.5580   31.9080  -18.6420 F   0  0  0  0  0  0  0  0  0  0  0  0
   31.7341   31.0149  -14.0390 H   0  0  0  0  0  0  0  0  0  0  0  0
   30.8725   31.5375  -15.5259 H   0  0  0  0  0  0  0  0  0  0  0  0
   31.8187   30.0107  -15.5259 H   0  0  0  0  0  0  0  0  0  0  0  0
   32.8395   32.1910  -16.6010 H   0  0  0  0  0  0  0  0  0  0  0  0
   33.1775   32.6247  -14.8711 H   0  0  0  0  0  0  0  0  0  0  0  0
   34.4304   31.0444  -13.4352 H   0  0  0  0  0  0  0  0  0  0  0  0
   36.4732   29.6369  -13.3283 H   0  0  0  0  0  0  0  0  0  0  0  0
   39.7595   28.6898  -11.9342 H   0  0  0  0  0  0  0  0  0  0  0  0
   41.8611   27.4367  -11.4295 H   0  0  0  0  0  0  0  0  0  0  0  0
   42.8625   25.9346  -13.1519 H   0  0  0  0  0  0  0  0  0  0  0  0
   42.2960   24.6970  -15.2210 H   0  0  0  0  0  0  0  0  0  0  0  0
   37.1990   28.3430  -18.0090 H   0  0  0  0  0  0  0  0  0  0  0  0
   36.4157   29.2241  -17.6216 H   0  0  0  0  0  0  0  0  0  0  0  0
  1  2  1  0
  2  3  1  0
  3  4  2  0
  4  5  1  0
  5  6  2  0
  6  7  1  0
  7  8  1  0
  8  9  1  0
  9 10  2  0
 10 11  1  0
 11 12  2  0
 12 13  1  0
 13 14  1  0
 13 15  2  0
 15 16  1  0
 16 17  2  0
 16 18  1  0
 18 19  1  0
  6 20  1  0
 20 21  2  0
 21 22  1  0
 22 23  1  0
 22 24  1  0
 22 25  1  0
 21  3  1  0
 18  7  2  0
 15  9  1  0
  1 26  1  0
  1 27  1  0
  1 28  1  0
  2 29  1  0
  2 30  1  0
  4 31  1  0
  5 32  1  0
 10 33  1  0
 11 34  1  0
 12 35  1  0
 14 36  1  0
 19 37  1  0
 20 38  1  0
M  END
>  <meeko>  (2) 
{"is_sidechain": [false], "free_energy": -10.854, "intermolecular_energy": -13.127, "internal_energy": 0.059}

$$$$
cand_050_out
     RDKit          3D

 38 40  0  0  0  0  0  0  0  0999 V2000
   44.0900   27.1360  -12.4250 C   0  0  0  0  0  0  0  0  0  0  0  0
   42.8080   26.3530  -12.1810 C   0  0  0  0  0  0  0  0  0  0  0  0
   41.6580   26.8730  -13.0160 C   0  0  0  0  0  0  0  0  0  0  0  0
   40.7660   27.7830  -12.4230 C   0  0  0  0  0  0  0  0  0  0  0  0
   39.6790   28.2940  -13.1360 C   0  0  0  0  0  0  0  0  0  0  0  0
   39.4530   27.9160  -14.4620 C   0  0  0  0  0  0  0  0  0  0  0  0
   38.2870   28.4540  -15.1930 C   0  0  0  0  0  0  0  0  0  0  0  0
   37.5160   29.3180  -14.4230 O   0  0  0  0  0  0  0  0  0  0  0  0
   36.4010   29.8880  -14.9820 C   0  0  0  0  0  0  0  0  0  0  0  0
   35.6490   30.7370  -14.1690 C   0  0  0  0  0  0  0  0  0  0  0  0
   34.5020   31.3530  -14.6770 C   0  0  0  0  0  0  0  0  0  0  0  0
   34.1110   31.1210  -15.9970 C   0  0  0  0  0  0  0  0  0  0  0  0
   34.8630   30.2740  -16.8060 C   0  0  0  0  0  0  0  0  0  0  0  0
   34.4220   30.0910  -18.0890 O   0  0  0  0  0  0  0  0  0  0  0  0
   36.0100   29.6570  -16.2970 C   0  0  0  0  0  0  0  0  0  0  0  0
   36.8280   28.7610  -17.1140 C   0  0  0  0  0  0  0  0  0  0  0  0
   36.5530   28.5120  -18.2860 O   0  0  0  0  0  0  0  0  0  0  0  0
   38.0190   28.1520  -16.4770 C   0  0  0  0  0  0  0  0  0  0  0  0
   38.7950   27.3160  -17.2590 O   0  0  0  0  0  0  0  0  0  0  0  0
   40.3330   26.9960  -15.0510 C   0  0  0  0  0  0  0  0  0  0  0  0
   41.4360   26.4650  -14.3490 C   0  0  0  0  0  0  0  0  0  0  0  0
   42.3520   25.4900  -15.0580 C   0  0  0  0  0  0  0  0  0  0  0  0
   43.6720   25.8280  -14.9850 F   0  0  0  0  0  0  0  0  0  0  0  0
   42.0820   25.3790  -16.3890 F   0  0  0  0  0  0  0  0  0  0  0  0
   42.2690   24.2290  -14.5500 F   0  0  0  0  0  0  0  0  0  0  0  0
   44.5408   27.4113  -11.4601 H   0  0  0  0  0  0  0  0  0  0  0  0
   44.7961   26.5148  -12.9956 H   0  0  0  0  0  0  0  0  0  0  0  0
   43.8598   28.0478  -12.9956 H   0  0  0  0  0  0  0  0  0  0  0  0
   42.9828   25.2973  -12.4357 H   0  0  0  0  0  0  0  0  0  0  0  0
   42.5369   26.4672  -11.1211 H   0  0  0  0  0  0  0  0  0  0  0  0
   40.9264   28.0977  -11.3812 H   0  0  0  0  0  0  0  0  0  0  0  0
   38.9931   29.0021  -12.6480 H   0  0  0  0  0  0  0  0  0  0  0  0
   35.9586   30.9212  -13.1297 H   0  0  0  0  0  0  0  0  0  0  0  0
   33.9071   32.0208  -14.0366 H   0  0  0  0  0  0  0  0  0  0  0  0
   33.2092   31.6073  -16.3974 H   0  0  0  0  0  0  0  0  0  0  0  0
   34.1770   30.8300  -18.6090 H   0  0  0  0  0  0  0  0  0  0  0  0
   38.8680   26.4070  -17.0420 H   0  0  0  0  0  0  0  0  0  0  0  0
   40.1583   26.6794  -16.0899 H   0  0  0  0  0  0  0  0  0  0  0  0
  1  2  1  0
  2  3  1  0
  3  4  2  0
  4  5  1  0
  5  6  2  0
  6  7  1  0
  7  8  1  0
  8  9  1  0
  9 10  2  0
 10 11  1  0
 11 12  2  0
 12 13  1  0
 13 14  1  0
 13 15  2  0
 15 16  1  0
 16 17  2  0
 16 18  1  0
 18 19  1  0
  6 20  1  0
 20 21  2  0
 21 22  1  0
 22 23  1  0
 22 24  1  0
 22 25  1  0
 21  3  1  0
 18  7  2  0
 15  9  1  0
  1 26  1  0
  1 27  1  0
  1 28  1  0
  2 29  1  0
  2 30  1  0
  4 31  1  0
  5 32  1  0
 10 33  1  0
 11 34  1  0
 12 35  1  0
 14 36  1  0
 19 37  1  0
 20 38  1  0
M  END
>  <meeko>  (3) 
{"is_sidechain": [false], "free_energy": -10.636, "intermolecular_energy": -13.028, "internal_energy": 0.229}

$$$$
cand_050_out
     RDKit          3D

 38 40  0  0  0  0  0  0  0  0999 V2000
   32.5360   31.2710  -17.1510 C   0  0  0  0  0  0  0  0  0  0  0  0
   33.7620   31.4190  -18.0420 C   0  0  0  0  0  0  0  0  0  0  0  0
   34.9430   30.6340  -17.5150 C   0  0  0  0  0  0  0  0  0  0  0  0
   35.2910   29.4390  -18.1680 C   0  0  0  0  0  0  0  0  0  0  0  0
   36.3650   28.6630  -17.7260 C   0  0  0  0  0  0  0  0  0  0  0  0
   37.1260   29.0590  -16.6220 C   0  0  0  0  0  0  0  0  0  0  0  0
   38.2470   28.2140  -16.1600 C   0  0  0  0  0  0  0  0  0  0  0  0
   38.5630   28.4180  -14.8210 O   0  0  0  0  0  0  0  0  0  0  0  0
   39.5870   27.6950  -14.2650 C   0  0  0  0  0  0  0  0  0  0  0  0
   39.8800   27.9420  -12.9230 C   0  0  0  0  0  0  0  0  0  0  0  0
   40.9100   27.2380  -12.2940 C   0  0  0  0  0  0  0  0  0  0  0  0
   41.6450   26.2890  -13.0070 C   0  0  0  0  0  0  0  0  0  0  0  0
   41.3510   26.0450  -14.3450 C   0  0  0  0  0  0  0  0  0  0  0  0
   42.1110   25.1020  -14.9830 O   0  0  0  0  0  0  0  0  0  0  0  0
   40.3210   26.7500  -14.9750 C   0  0  0  0  0  0  0  0  0  0  0  0
   39.9800   26.5240  -16.3790 C   0  0  0  0  0  0  0  0  0  0  0  0
   40.5760   25.7010  -17.0710 O   0  0  0  0  0  0  0  0  0  0  0  0
   38.8770   27.3280  -16.9530 C   0  0  0  0  0  0  0  0  0  0  0  0
   38.5510   27.1000  -18.2770 O   0  0  0  0  0  0  0  0  0  0  0  0
   36.7710   30.2430  -15.9590 C   0  0  0  0  0  0  0  0  0  0  0  0
   35.6880   31.0420  -16.3870 C   0  0  0  0  0  0  0  0  0  0  0  0
   35.3780   32.3160  -15.6310 C   0  0  0  0  0  0  0  0  0  0  0  0
   35.0020   33.3520  -16.4360 F   0  0  0  0  0  0  0  0  0  0  0  0
   36.4410   32.7820  -14.9170 F   0  0  0  0  0  0  0  0  0  0  0  0
   34.3630   32.1600  -14.7360 F   0  0  0  0  0  0  0  0  0  0  0  0
   32.8432   31.3081  -16.0954 H   0  0  0  0  0  0  0  0  0  0  0  0
   31.8319   32.0907  -17.3570 H   0  0  0  0  0  0  0  0  0  0  0  0
   32.0472   30.3073  -17.3570 H   0  0  0  0  0  0  0  0  0  0  0  0
   33.5146   31.0547  -19.0500 H   0  0  0  0  0  0  0  0  0  0  0  0
   34.0420   32.4826  -18.0612 H   0  0  0  0  0  0  0  0  0  0  0  0
   34.7083   29.1097  -19.0409 H   0  0  0  0  0  0  0  0  0  0  0  0
   36.6148   27.7300  -18.2523 H   0  0  0  0  0  0  0  0  0  0  0  0
   39.3009   28.6898  -12.3613 H   0  0  0  0  0  0  0  0  0  0  0  0
   41.1420   27.4316  -11.2363 H   0  0  0  0  0  0  0  0  0  0  0  0
   42.4557   25.7347  -12.5115 H   0  0  0  0  0  0  0  0  0  0  0  0
   41.9770   24.9300  -15.8930 H   0  0  0  0  0  0  0  0  0  0  0  0
   39.1390   27.3660  -18.9570 H   0  0  0  0  0  0  0  0  0  0  0  0
   37.3529   30.5583  -15.0804 H   0  0  0  0  0  0  0  0  0  0  0  0
  1  2  1  0
  2  3  1  0
  3  4  2  0
  4  5  1  0
  5  6  2  0
  6  7  1  0
  7  8  1  0
  8  9  1  0
  9 10  2  0
 10 11  1  0
 11 12  2  0
 12 13  1  0
 13 14  1  0
 13 15  2  0
 15 16  1  0
 16 17  2  0
 16 18  1  0
 18 19  1  0
  6 20  1  0
 20 21  2  0
 21 22  1  0
 22 23  1  0
 22 24  1  0
 22 25  1  0
 21  3  1  0
 18  7  2  0
 15  9  1  0
  1 26  1  0
  1 27  1  0
  1 28  1  0
  2 29  1  0
  2 30  1  0
  4 31  1  0
  5 32  1  0
 10 33  1  0
 11 34  1  0
 12 35  1  0
 14 36  1  0
 19 37  1  0
 20 38  1  0
M  END
>  <meeko>  (4) 
{"is_sidechain": [false], "free_energy": -9.905, "intermolecular_energy": -12.114, "internal_energy": 0.217}

$$$$
cand_050_out
     RDKit          3D

 38 40  0  0  0  0  0  0  0  0999 V2000
   41.7190   25.9410  -15.1940 C   0  0  0  0  0  0  0  0  0  0  0  0
   40.3160   25.7760  -14.6270 C   0  0  0  0  0  0  0  0  0  0  0  0
   39.4210   26.9430  -14.9830 C   0  0  0  0  0  0  0  0  0  0  0  0
   38.7960   26.9390  -16.2420 C   0  0  0  0  0  0  0  0  0  0  0  0
   37.9640   27.9900  -16.6360 C   0  0  0  0  0  0  0  0  0  0  0  0
   37.7290   29.0730  -15.7840 C   0  0  0  0  0  0  0  0  0  0  0  0
   36.8600   30.1840  -16.2270 C   0  0  0  0  0  0  0  0  0  0  0  0
   35.5150   29.9610  -15.9570 O   0  0  0  0  0  0  0  0  0  0  0  0
   34.5990   30.9160  -16.3200 C   0  0  0  0  0  0  0  0  0  0  0  0
   33.2590   30.6440  -16.0440 C   0  0  0  0  0  0  0  0  0  0  0  0
   32.2750   31.5760  -16.3840 C   0  0  0  0  0  0  0  0  0  0  0  0
   32.6320   32.7770  -16.9980 C   0  0  0  0  0  0  0  0  0  0  0  0
   33.9700   33.0460  -17.2730 C   0  0  0  0  0  0  0  0  0  0  0  0
   34.2500   34.2420  -17.8770 O   0  0  0  0  0  0  0  0  0  0  0  0
   34.9550   32.1130  -16.9330 C   0  0  0  0  0  0  0  0  0  0  0  0
   36.3720   32.3560  -17.2030 C   0  0  0  0  0  0  0  0  0  0  0  0
   36.7670   33.3920  -17.7350 O   0  0  0  0  0  0  0  0  0  0  0  0
   37.3340   31.3010  -16.8110 C   0  0  0  0  0  0  0  0  0  0  0  0
   38.6730   31.5430  -17.0580 O   0  0  0  0  0  0  0  0  0  0  0  0
   38.3650   29.0870  -14.5340 C   0  0  0  0  0  0  0  0  0  0  0  0
   39.2110   28.0370  -14.1160 C   0  0  0  0  0  0  0  0  0  0  0  0
   39.8470   28.1140  -12.7450 C   0  0  0  0  0  0  0  0  0  0  0  0
   39.5330   27.0610  -11.9350 F   0  0  0  0  0  0  0  0  0  0  0  0
   39.4770   29.2260  -12.0490 F   0  0  0  0  0  0  0  0  0  0  0  0
   41.2080   28.1410  -12.7990 F   0  0  0  0  0  0  0  0  0  0  0  0
   42.4406   26.0259  -14.3681 H   0  0  0  0  0  0  0  0  0  0  0  0
   41.9700   25.0662  -15.8118 H   0  0  0  0  0  0  0  0  0  0  0  0
   41.7602   26.8502  -15.8118 H   0  0  0  0  0  0  0  0  0  0  0  0
   39.8751   24.8534  -15.0325 H   0  0  0  0  0  0  0  0  0  0  0  0
   40.3953   25.7301  -13.5308 H   0  0  0  0  0  0  0  0  0  0  0  0
   38.9645   26.0955  -16.9276 H   0  0  0  0  0  0  0  0  0  0  0  0
   37.4886   27.9650  -17.6277 H   0  0  0  0  0  0  0  0  0  0  0  0
   32.9774   29.6974  -15.5595 H   0  0  0  0  0  0  0  0  0  0  0  0
   31.2179   31.3627  -16.1674 H   0  0  0  0  0  0  0  0  0  0  0  0
   31.8569   33.5107  -17.2645 H   0  0  0  0  0  0  0  0  0  0  0  0
   33.6460   34.6080  -18.4910 H   0  0  0  0  0  0  0  0  0  0  0  0
   39.0280   32.3980  -16.9160 H   0  0  0  0  0  0  0  0  0  0  0  0
   38.1999   29.9406  -13.8601 H   0  0  0  0  0  0  0  0  0  0  0  0
  1  2  1  0
  2  3  1  0
  3  4  2  0
  4  5  1  0
  5  6  2  0
  6  7  1  0
  7  8  1  0
  8  9  1  0
  9 10  2  0
 10 11  1  0
 11 12  2  0
 12 13  1  0
 13 14  1  0
 13 15  2  0
 15 16  1  0
 16 17  2  0
 16 18  1  0
 18 19  1  0
  6 20  1  0
 20 21  2  0
 21 22  1  0
 22 23  1  0
 22 24  1  0
 22 25  1  0
 21  3  1  0
 18  7  2  0
 15  9  1  0
  1 26  1  0
  1 27  1  0
  1 28  1  0
  2 29  1  0
  2 30  1  0
  4 31  1  0
  5 32  1  0
 10 33  1  0
 11 34  1  0
 12 35  1  0
 14 36  1  0
 19 37  1  0
 20 38  1  0
M  END
>  <meeko>  (5) 
{"is_sidechain": [false], "free_energy": -9.743, "intermolecular_energy": -10.968, "internal_energy": -0.729}

$$$$
cand_050_out
     RDKit          3D

 38 40  0  0  0  0  0  0  0  0999 V2000
   40.4290   26.9660  -12.6700 C   0  0  0  0  0  0  0  0  0  0  0  0
   40.0780   26.6420  -14.1150 C   0  0  0  0  0  0  0  0  0  0  0  0
   39.1030   27.6410  -14.7000 C   0  0  0  0  0  0  0  0  0  0  0  0
   38.5410   28.6000  -13.8400 C   0  0  0  0  0  0  0  0  0  0  0  0
   37.6280   29.5450  -14.3150 C   0  0  0  0  0  0  0  0  0  0  0  0
   37.2520   29.5620  -15.6610 C   0  0  0  0  0  0  0  0  0  0  0  0
   36.2710   30.5590  -16.1390 C   0  0  0  0  0  0  0  0  0  0  0  0
   34.9640   30.2480  -15.7790 O   0  0  0  0  0  0  0  0  0  0  0  0
   33.9530   31.0920  -16.1610 C   0  0  0  0  0  0  0  0  0  0  0  0
   32.6560   30.7350  -15.7910 C   0  0  0  0  0  0  0  0  0  0  0  0
   31.5800   31.5520  -16.1460 C   0  0  0  0  0  0  0  0  0  0  0  0
   31.8020   32.7260  -16.8690 C   0  0  0  0  0  0  0  0  0  0  0  0
   33.0970   33.0800  -17.2360 C   0  0  0  0  0  0  0  0  0  0  0  0
   33.2430   34.2430  -17.9440 O   0  0  0  0  0  0  0  0  0  0  0  0
   34.1740   32.2620  -16.8820 C   0  0  0  0  0  0  0  0  0  0  0  0
   35.5500   32.5980  -17.2480 C   0  0  0  0  0  0  0  0  0  0  0  0
   35.8270   33.6170  -17.8780 O   0  0  0  0  0  0  0  0  0  0  0  0
   36.6170   31.6600  -16.8310 C   0  0  0  0  0  0  0  0  0  0  0  0
   37.9160   31.9910  -17.1690 O   0  0  0  0  0  0  0  0  0  0  0  0
   37.8000   28.5960  -16.5170 C   0  0  0  0  0  0  0  0  0  0  0  0
   38.7230   27.6300  -16.0590 C   0  0  0  0  0  0  0  0  0  0  0  0
   39.2850   26.6310  -17.0470 C   0  0  0  0  0  0  0  0  0  0  0  0
   40.5880   26.3020  -16.8130 F   0  0  0  0  0  0  0  0  0  0  0  0
   39.2530   27.0810  -18.3340 F   0  0  0  0  0  0  0  0  0  0  0  0
   38.6030   25.4520  -17.0450 F   0  0  0  0  0  0  0  0  0  0  0  0
   39.7900   26.3762  -11.9964 H   0  0  0  0  0  0  0  0  0  0  0  0
   41.4845   26.7180  -12.4846 H   0  0  0  0  0  0  0  0  0  0  0  0
   40.2662   28.0380  -12.4846 H   0  0  0  0  0  0  0  0  0  0  0  0
   40.9998   26.6523  -14.7151 H   0  0  0  0  0  0  0  0  0  0  0  0
   39.6012   25.6509  -14.1345 H   0  0  0  0  0  0  0  0  0  0  0  0
   38.8241   28.6067  -12.7771 H   0  0  0  0  0  0  0  0  0  0  0  0
   37.2002   30.2841  -13.6216 H   0  0  0  0  0  0  0  0  0  0  0  0
   32.4809   29.8111  -15.2203 H   0  0  0  0  0  0  0  0  0  0  0  0
   30.5570   31.2704  -15.8558 H   0  0  0  0  0  0  0  0  0  0  0  0
   30.9548   33.3698  -17.1479 H   0  0  0  0  0  0  0  0  0  0  0  0
   34.0580   34.7030  -17.9270 H   0  0  0  0  0  0  0  0  0  0  0  0
   38.0840   32.7350  -17.7130 H   0  0  0  0  0  0  0  0  0  0  0  0
   37.5024   28.5904  -17.5760 H   0  0  0  0  0  0  0  0  0  0  0  0
  1  2  1  0
  2  3  1  0
  3  4  2  0
  4  5  1  0
  5  6  2  0
  6  7  1  0
  7  8  1  0
  8  9  1  0
  9 10  2  0
 10 11  1  0
 11 12  2  0
 12 13  1  0
 13 14  1  0
 13 15  2  0
 15 16  1  0
 16 17  2  0
 16 18  1  0
 18 19  1  0
  6 20  1  0
 20 21  2  0
 21 22  1  0
 22 23  1  0
 22 24  1  0
 22 25  1  0
 21  3  1  0
 18  7  2  0
 15  9  1  0
  1 26  1  0
  1 27  1  0
  1 28  1  0
  2 29  1  0
  2 30  1  0
  4 31  1  0
  5 32  1  0
 10 33  1  0
 11 34  1  0
 12 35  1  0
 14 36  1  0
 19 37  1  0
 20 38  1  0
M  END
>  <meeko>  (6) 
{"is_sidechain": [false], "free_energy": -9.583, "intermolecular_energy": -11.061, "internal_energy": -0.439}

$$$$
cand_050_out
     RDKit          3D

 38 40  0  0  0  0  0  0  0  0999 V2000
   43.5540   26.0260  -14.7530 C   0  0  0  0  0  0  0  0  0  0  0  0
   42.2740   25.4120  -14.2060 C   0  0  0  0  0  0  0  0  0  0  0  0
   41.0500   26.2100  -14.5980 C   0  0  0  0  0  0  0  0  0  0  0  0
   40.5110   26.0120  -15.8810 C   0  0  0  0  0  0  0  0  0  0  0  0
   39.3880   26.7240  -16.3080 C   0  0  0  0  0  0  0  0  0  0  0  0
   38.7670   27.6510  -15.4670 C   0  0  0  0  0  0  0  0  0  0  0  0
   37.5900   28.4070  -15.9450 C   0  0  0  0  0  0  0  0  0  0  0  0
   36.9850   29.1580  -14.9440 O   0  0  0  0  0  0  0  0  0  0  0  0
   35.8790   29.9080  -15.2550 C   0  0  0  0  0  0  0  0  0  0  0  0
   35.2940   30.6340  -14.2170 C   0  0  0  0  0  0  0  0  0  0  0  0
   34.1660   31.4200  -14.4660 C   0  0  0  0  0  0  0  0  0  0  0  0
   33.6260   31.4810  -15.7520 C   0  0  0  0  0  0  0  0  0  0  0  0
   34.2120   30.7550  -16.7860 C   0  0  0  0  0  0  0  0  0  0  0  0
   33.6310   30.8600  -18.0210 O   0  0  0  0  0  0  0  0  0  0  0  0
   35.3400   29.9670  -16.5370 C   0  0  0  0  0  0  0  0  0  0  0  0
   35.9850   29.1900  -17.5940 C   0  0  0  0  0  0  0  0  0  0  0  0
   35.5740   29.1960  -18.7530 O   0  0  0  0  0  0  0  0  0  0  0  0
   37.1700   28.3820  -17.2240 C   0  0  0  0  0  0  0  0  0  0  0  0
   37.7820   27.6600  -18.2310 O   0  0  0  0  0  0  0  0  0  0  0  0
   39.3120   27.8630  -14.1920 C   0  0  0  0  0  0  0  0  0  0  0  0
   40.4480   27.1560  -13.7400 C   0  0  0  0  0  0  0  0  0  0  0  0
   40.9670   27.4260  -12.3440 C   0  0  0  0  0  0  0  0  0  0  0  0
   42.3220   27.3100  -12.2320 F   0  0  0  0  0  0  0  0  0  0  0  0
   40.4540   26.5740  -11.4130 F   0  0  0  0  0  0  0  0  0  0  0  0
   40.6700   28.6820  -11.9080 F   0  0  0  0  0  0  0  0  0  0  0  0
   44.1987   26.3352  -13.9171 H   0  0  0  0  0  0  0  0  0  0  0  0
   44.0828   25.2835  -15.3687 H   0  0  0  0  0  0  0  0  0  0  0  0
   43.3059   26.9031  -15.3687 H   0  0  0  0  0  0  0  0  0  0  0  0
   42.1733   24.3903  -14.6009 H   0  0  0  0  0  0  0  0  0  0  0  0
   42.3406   25.4095  -13.1080 H   0  0  0  0  0  0  0  0  0  0  0  0
   40.9811   25.2848  -16.5594 H   0  0  0  0  0  0  0  0  0  0  0  0
   38.9877   26.5530  -17.3182 H   0  0  0  0  0  0  0  0  0  0  0  0
   35.7203   30.5876  -13.2040 H   0  0  0  0  0  0  0  0  0  0  0  0
   33.7029   31.9913  -13.6480 H   0  0  0  0  0  0  0  0  0  0  0  0
   32.7391   32.1015  -15.9482 H   0  0  0  0  0  0  0  0  0  0  0  0
   33.7780   30.1970  -18.6650 H   0  0  0  0  0  0  0  0  0  0  0  0
   38.3930   26.9820  -18.0170 H   0  0  0  0  0  0  0  0  0  0  0  0
   38.8414   28.6007  -13.5254 H   0  0  0  0  0  0  0  0  0  0  0  0
  1  2  1  0
  2  3  1  0
  3  4  2  0
  4  5  1  0
  5  6  2  0
  6  7  1  0
  7  8  1  0
  8  9  1  0
  9 10  2  0
 10 11  1  0
 11 12  2  0
 12 13  1  0
 13 14  1  0
 13 15  2  0
 15 16  1  0
 16 17  2  0
 16 18  1  0
 18 19  1  0
  6 20  1  0
 20 21  2  0
 21 22  1  0
 22 23  1  0
 22 24  1  0
 22 25  1  0
 21  3  1  0
 18  7  2  0
 15  9  1  0
  1 26  1  0
  1 27  1  0
  1 28  1  0
  2 29  1  0
  2 30  1  0
  4 31  1  0
  5 32  1  0
 10 33  1  0
 11 34  1  0
 12 35  1  0
 14 36  1  0
 19 37  1  0
 20 38  1  0
M  END
>  <meeko>  (7) 
{"is_sidechain": [false], "free_energy": -9.508, "intermolecular_energy": -11.722, "internal_energy": 0.315}

$$$$
cand_050_out
     RDKit          3D

 38 40  0  0  0  0  0  0  0  0999 V2000
   33.8300   32.1730  -17.8520 C   0  0  0  0  0  0  0  0  0  0  0  0
   33.5130   31.1640  -16.7570 C   0  0  0  0  0  0  0  0  0  0  0  0
   34.7560   30.4630  -16.2550 C   0  0  0  0  0  0  0  0  0  0  0  0
   35.6450   29.9290  -17.2030 C   0  0  0  0  0  0  0  0  0  0  0  0
   36.8060   29.2620  -16.8050 C   0  0  0  0  0  0  0  0  0  0  0  0
   37.1160   29.1120  -15.4490 C   0  0  0  0  0  0  0  0  0  0  0  0
   38.3400   28.3870  -15.0490 C   0  0  0  0  0  0  0  0  0  0  0  0
   38.8720   27.6140  -16.0760 O   0  0  0  0  0  0  0  0  0  0  0  0
   40.0110   26.8890  -15.8360 C   0  0  0  0  0  0  0  0  0  0  0  0
   40.5020   26.1150  -16.8890 C   0  0  0  0  0  0  0  0  0  0  0  0
   41.6590   25.3540  -16.7130 C   0  0  0  0  0  0  0  0  0  0  0  0
   42.3250   25.3670  -15.4860 C   0  0  0  0  0  0  0  0  0  0  0  0
   41.8340   26.1390  -14.4370 C   0  0  0  0  0  0  0  0  0  0  0  0
   42.5350   26.1050  -13.2630 O   0  0  0  0  0  0  0  0  0  0  0  0
   40.6740   26.9000  -14.6130 C   0  0  0  0  0  0  0  0  0  0  0  0
   40.1240   27.7250  -13.5370 C   0  0  0  0  0  0  0  0  0  0  0  0
   40.6560   27.7950  -12.4310 O   0  0  0  0  0  0  0  0  0  0  0  0
   38.8880   28.4880  -13.8240 C   0  0  0  0  0  0  0  0  0  0  0  0
   38.3810   29.2750  -12.8070 O   0  0  0  0  0  0  0  0  0  0  0  0
   36.2210   29.6310  -14.5020 C   0  0  0  0  0  0  0  0  0  0  0  0
   35.0410   30.3060  -14.8810 C   0  0  0  0  0  0  0  0  0  0  0  0
   34.1340   30.8540  -13.8000 C   0  0  0  0  0  0  0  0  0  0  0  0
   32.9820   31.4060  -14.2800 F   0  0  0  0  0  0  0  0  0  0  0  0
   34.7230   31.8360  -13.0600 F   0  0  0  0  0  0  0  0  0  0  0  0
   33.7410   29.8990  -12.9120 F   0  0  0  0  0  0  0  0  0  0  0  0
   34.1299   33.1277  -17.3952 H   0  0  0  0  0  0  0  0  0  0  0  0
   34.6514   31.7910  -18.4760 H   0  0  0  0  0  0  0  0  0  0  0  0
   32.9377   32.3294  -18.4760 H   0  0  0  0  0  0  0  0  0  0  0  0
   33.0379   31.6902  -15.9159 H   0  0  0  0  0  0  0  0  0  0  0  0
   32.8414   30.4028  -17.1806 H   0  0  0  0  0  0  0  0  0  0  0  0
   35.4233   30.0378  -18.2749 H   0  0  0  0  0  0  0  0  0  0  0  0
   37.4844   28.8499  -17.5666 H   0  0  0  0  0  0  0  0  0  0  0  0
   39.9779   26.1048  -17.8561 H   0  0  0  0  0  0  0  0  0  0  0  0
   42.0464   24.7434  -17.5419 H   0  0  0  0  0  0  0  0  0  0  0  0
   43.2370   24.7676  -15.3484 H   0  0  0  0  0  0  0  0  0  0  0  0
   42.7120   25.2850  -12.8470 H   0  0  0  0  0  0  0  0  0  0  0  0
   37.5300   29.0980  -12.4570 H   0  0  0  0  0  0  0  0  0  0  0  0
   36.4455   29.5083  -13.4322 H   0  0  0  0  0  0  0  0  0  0  0  0
  1  2  1  0
  2  3  1  0
  3  4  2  0
  4  5  1  0
  5  6  2  0
  6  7  1  0
  7  8  1  0
  8  9  1  0
  9 10  2  0
 10 11  1  0
 11 12  2  0
 12 13  1  0
 13 14  1  0
 13 15  2  0
 15 16  1  0
 16 17  2  0
 16 18  1  0
 18 19  1  0
  6 20  1  0
 20 21  2  0
 21 22  1  0
 22 23  1  0
 22 24  1  0
 22 25  1  0
 21  3  1  0
 18  7  2  0
 15  9  1  0
  1 26  1  0
  1 27  1  0
  1 28  1  0
  2 29  1  0
  2 30  1  0
  4 31  1  0
  5 32  1  0
 10 33  1  0
 11 34  1  0
 12 35  1  0
 14 36  1  0
 19 37  1  0
 20 38  1  0
M  END
>  <meeko>  (8) 
{"is_sidechain": [false], "free_energy": -9.418, "intermolecular_energy": -11.679, "internal_energy": 0.383}

$$$$
cand_050_out
     RDKit          3D

 38 40  0  0  0  0  0  0  0  0999 V2000
   35.6410   34.5930  -18.6720 C   0  0  0  0  0  0  0  0  0  0  0  0
   34.8380   33.7950  -17.6540 C   0  0  0  0  0  0  0  0  0  0  0  0
   35.5970   32.5840  -17.1580 C   0  0  0  0  0  0  0  0  0  0  0  0
   37.0010   32.6150  -17.2060 C   0  0  0  0  0  0  0  0  0  0  0  0
   37.7610   31.5260  -16.7720 C   0  0  0  0  0  0  0  0  0  0  0  0
   37.1410   30.3760  -16.2740 C   0  0  0  0  0  0  0  0  0  0  0  0
   37.9630   29.2280  -15.8370 C   0  0  0  0  0  0  0  0  0  0  0  0
   38.4290   29.3590  -14.5330 O   0  0  0  0  0  0  0  0  0  0  0  0
   39.2060   28.3610  -14.0040 C   0  0  0  0  0  0  0  0  0  0  0  0
   39.6640   28.5410  -12.6980 C   0  0  0  0  0  0  0  0  0  0  0  0
   40.4580   27.5610  -12.0970 C   0  0  0  0  0  0  0  0  0  0  0  0
   40.7920   26.4030  -12.8010 C   0  0  0  0  0  0  0  0  0  0  0  0
   40.3340   26.2260  -14.1040 C   0  0  0  0  0  0  0  0  0  0  0  0
   40.7000   25.0690  -14.7360 O   0  0  0  0  0  0  0  0  0  0  0  0
   39.5400   27.2070  -14.7060 C   0  0  0  0  0  0  0  0  0  0  0  0
   39.0380   27.0600  -16.0720 C   0  0  0  0  0  0  0  0  0  0  0  0
   39.2830   26.0680  -16.7540 O   0  0  0  0  0  0  0  0  0  0  0  0
   38.2120   28.1610  -16.6190 C   0  0  0  0  0  0  0  0  0  0  0  0
   37.7300   28.0090  -17.9060 O   0  0  0  0  0  0  0  0  0  0  0  0
   35.7400   30.3360  -16.2410 C   0  0  0  0  0  0  0  0  0  0  0  0
   34.9520   31.4240  -16.6760 C   0  0  0  0  0  0  0  0  0  0  0  0
   33.4450   31.3130  -16.5920 C   0  0  0  0  0  0  0  0  0  0  0  0
   32.8100   32.5190  -16.5310 F   0  0  0  0  0  0  0  0  0  0  0  0
   33.0230   30.6280  -15.4920 F   0  0  0  0  0  0  0  0  0  0  0  0
   32.9060   30.6700  -17.6650 F   0  0  0  0  0  0  0  0  0  0  0  0
   36.3263   35.2740  -18.1460 H   0  0  0  0  0  0  0  0  0  0  0  0
   36.2216   33.9037  -19.3028 H   0  0  0  0  0  0  0  0  0  0  0  0
   34.9554   35.1778  -19.3028 H   0  0  0  0  0  0  0  0  0  0  0  0
   34.6057   34.4443  -16.7970 H   0  0  0  0  0  0  0  0  0  0  0  0
   33.9195   33.4426  -18.1462 H   0  0  0  0  0  0  0  0  0  0  0  0
   37.5098   33.5109  -17.5914 H   0  0  0  0  0  0  0  0  0  0  0  0
   38.8588   31.5738  -16.8226 H   0  0  0  0  0  0  0  0  0  0  0  0
   39.4002   29.4531  -12.1426 H   0  0  0  0  0  0  0  0  0  0  0  0
   40.8203   27.7022  -11.0680 H   0  0  0  0  0  0  0  0  0  0  0  0
   41.4162   25.6312  -12.3271 H   0  0  0  0  0  0  0  0  0  0  0  0
   40.6960   25.0240  -15.6710 H   0  0  0  0  0  0  0  0  0  0  0  0
   38.1070   28.5020  -18.6080 H   0  0  0  0  0  0  0  0  0  0  0  0
   35.2402   29.4310  -15.8654 H   0  0  0  0  0  0  0  0  0  0  0  0
  1  2  1  0
  2  3  1  0
  3  4  2  0
  4  5  1  0
  5  6  2  0
  6  7  1  0
  7  8  1  0
  8  9  1  0
  9 10  2  0
 10 11  1  0
 11 12  2  0
 12 13  1  0
 13 14  1  0
 13 15  2  0
 15 16  1  0
 16 17  2  0
 16 18  1  0
 18 19  1  0
  6 20  1  0
 20 21  2  0
 21 22  1  0
 22 23  1  0
 22 24  1  0
 22 25  1  0
 21  3  1  0
 18  7  2  0
 15  9  1  0
  1 26  1  0
  1 27  1  0
  1 28  1  0
  2 29  1  0
  2 30  1  0
  4 31  1  0
  5 32  1  0
 10 33  1  0
 11 34  1  0
 12 35  1  0
 14 36  1  0
 19 37  1  0
 20 38  1  0
M  END
>  <meeko>  (9) 
{"is_sidechain": [false], "free_energy": -9.125, "intermolecular_energy": -10.622, "internal_energy": -0.313}

$$$$
