
 OpenBabel08202615343D

 41 43  0  0  0  0  0  0  0  0999 V2000
   -6.4559    0.3797    0.7649 C   0  0  0  0  0  0  0  0  0  0  0  0
   -4.9411    0.3745    0.8959 C   0  0  0  0  0  0  0  0  0  0  0  0
   -4.2795   -0.3012   -0.3069 C   0  0  0  0  0  0  0  0  0  0  0  0
   -2.7692   -0.2840   -0.2027 C   0  0  0  0  0  0  0  0  0  0  0  0
   -2.1449   -1.2803    0.5660 C   0  0  0  0  0  0  0  0  0  0  0  0
   -0.7567   -1.3111    0.7171 C   0  0  0  0  0  0  0  0  0  0  0  0
    0.0484   -0.3411    0.1141 C   0  0  0  0  0  0  0  0  0  0  0  0
    1.5218   -0.3637    0.2367 C   0  0  0  0  0  0  0  0  0  0  0  0
    2.1677   -0.1787   -0.9806 O   0  0  0  0  0  0  0  0  0  0  0  0
    3.5388   -0.1726   -1.0100 C   0  0  0  0  0  0  0  0  0  0  0  0
    4.1450    0.0062   -2.2543 C   0  0  0  0  0  0  0  0  0  0  0  0
    5.5380    0.0232   -2.3543 C   0  0  0  0  0  0  0  0  0  0  0  0
    6.3239   -0.1382   -1.2115 C   0  0  0  0  0  0  0  0  0  0  0  0
    5.7164   -0.3159    0.0287 C   0  0  0  0  0  0  0  0  0  0  0  0
    6.5453   -0.4673    1.1065 O   0  0  0  0  0  0  0  0  0  0  0  0
    4.3226   -0.3331    0.1284 C   0  0  0  0  0  0  0  0  0  0  0  0
    3.6442   -0.5162    1.4123 C   0  0  0  0  0  0  0  0  0  0  0  0
    4.2662   -0.6585    2.4629 O   0  0  0  0  0  0  0  0  0  0  0  0
    2.1631   -0.5245    1.4092 C   0  0  0  0  0  0  0  0  0  0  0  0
    1.5326   -0.6823    2.6295 O   0  0  0  0  0  0  0  0  0  0  0  0
   -0.5732    0.6517   -0.6588 C   0  0  0  0  0  0  0  0  0  0  0  0
   -1.9731    0.7023   -0.8218 C   0  0  0  0  0  0  0  0  0  0  0  0
   -2.5673    1.7944   -1.6818 C   0  0  0  0  0  0  0  0  0  0  0  0
   -3.5673    2.4815   -1.0630 F   0  0  0  0  0  0  0  0  0  0  0  0
   -1.6615    2.7412   -2.0637 F   0  0  0  0  0  0  0  0  0  0  0  0
   -6.8862    0.8580    1.6199 H   0  0  0  0  0  0  0  0  0  0  0  0
   -6.8120   -0.6274    0.7027 H   0  0  0  0  0  0  0  0  0  0  0  0
   -6.7355    0.9121   -0.1201 H   0  0  0  0  0  0  0  0  0  0  0  0
   -4.6703   -0.1551    1.7853 H   0  0  0  0  0  0  0  0  0  0  0  0
   -4.6033    1.3888    0.9405 H   0  0  0  0  0  0  0  0  0  0  0  0
   -4.5709    0.2152   -1.1976 H   0  0  0  0  0  0  0  0  0  0  0  0
   -4.5990   -1.3221   -0.3315 H   0  0  0  0  0  0  0  0  0  0  0  0
   -2.7216   -2.0015    1.0268 H   0  0  0  0  0  0  0  0  0  0  0  0
   -0.3209   -2.0582    1.2801 H   0  0  0  0  0  0  0  0  0  0  0  0
    3.5648    0.1257   -3.0993 H   0  0  0  0  0  0  0  0  0  0  0  0
    5.9870    0.1552   -3.2741 H   0  0  0  0  0  0  0  0  0  0  0  0
    7.3531   -0.1258   -1.2859 H   0  0  0  0  0  0  0  0  0  0  0  0
    7.4747   -0.4486    0.9890 H   0  0  0  0  0  0  0  0  0  0  0  0
    2.0411   -0.7898    3.4091 H   0  0  0  0  0  0  0  0  0  0  0  0
    0.0111    1.3656   -1.1214 H   0  0  0  0  0  0  0  0  0  0  0  0
   -2.9345    1.2526   -2.5283 H   0  0  0  0  0  0  0  0  0  0  0  0
  1  2  1  0  0  0  0
  1 26  1  0  0  0  0
  1 27  1  0  0  0  0
  1 28  1  0  0  0  0
  2  3  1  0  0  0  0
  2 29  1  0  0  0  0
  2 30  1  0  0  0  0
  3  4  1  0  0  0  0
  3 31  1  0  0  0  0
  3 32  1  0  0  0  0
  4  5  2  0  0  0  0
  5  6  1  0  0  0  0
  5 33  1  0  0  0  0
  6  7  2  0  0  0  0
  6 34  1  0  0  0  0
  7  8  1  0  0  0  0
  7 21  1  0  0  0  0
  8  9  1  0  0  0  0
  9 10  1  0  0  0  0
 10 11  2  0  0  0  0
 11 12  1  0  0  0  0
 11 35  1  0  0  0  0
 12 13  2  0  0  0  0
 12 36  1  0  0  0  0
 13 14  1  0  0  0  0
 13 37  1  0  0  0  0
 14 15  1  0  0  0  0
 14 16  2  0  0  0  0
 15 38  1  0  0  0  0
 16 17  1  0  0  0  0
 16 10  1  0  0  0  0
 17 18  2  0  0  0  0
 17 19  1  0  0  0  0
 19 20  1  0  0  0  0
 19  8  2  0  0  0  0
 20 39  1  0  0  0  0
 21 22  2  0  0  0  0
 21 40  1  0  0  0  0
 22 23  1  0  0  0  0
 22  4  1  0  0  0  0
 23 24  1  0  0  0  0
 23 25  1  0  0  0  0
 23 41  1  0  0  0  0
M  END
$$$$
