
 OpenBabel08202615353D

 38 40  0  0  0  0  0  0  0  0999 V2000
    5.2911   -1.3541   -0.1056 C   0  0  0  0  0  0  0  0  0  0  0  0
    4.8020   -0.1347    0.6626 C   0  0  0  0  0  0  0  0  0  0  0  0
    3.2999    0.0266    0.5731 C   0  0  0  0  0  0  0  0  0  0  0  0
    2.4978   -0.7277    1.4456 C   0  0  0  0  0  0  0  0  0  0  0  0
    1.1052   -0.6323    1.4078 C   0  0  0  0  0  0  0  0  0  0  0  0
    0.4719    0.2229    0.5008 C   0  0  0  0  0  0  0  0  0  0  0  0
   -1.0040    0.2958    0.4645 C   0  0  0  0  0  0  0  0  0  0  0  0
   -1.6087   -0.9555    0.4777 O   0  0  0  0  0  0  0  0  0  0  0  0
   -2.9779   -1.0301    0.4473 C   0  0  0  0  0  0  0  0  0  0  0  0
   -3.5430   -2.3062    0.4464 C   0  0  0  0  0  0  0  0  0  0  0  0
   -4.9316   -2.4528    0.4182 C   0  0  0  0  0  0  0  0  0  0  0  0
   -5.7544   -1.3248    0.3915 C   0  0  0  0  0  0  0  0  0  0  0  0
   -5.1879   -0.0528    0.3925 C   0  0  0  0  0  0  0  0  0  0  0  0
   -6.0516    1.0078    0.3661 O   0  0  0  0  0  0  0  0  0  0  0  0
   -3.7984    0.0937    0.4198 C   0  0  0  0  0  0  0  0  0  0  0  0
   -3.1627    1.4122    0.4219 C   0  0  0  0  0  0  0  0  0  0  0  0
   -3.8183    2.4517    0.4068 O   0  0  0  0  0  0  0  0  0  0  0  0
   -1.6826    1.4578    0.4441 C   0  0  0  0  0  0  0  0  0  0  0  0
   -1.0901    2.7071    0.4588 O   0  0  0  0  0  0  0  0  0  0  0  0
    1.2695    0.9651   -0.3819 C   0  0  0  0  0  0  0  0  0  0  0  0
    2.6785    0.8818   -0.3630 C   0  0  0  0  0  0  0  0  0  0  0  0
    3.4726    1.7278   -1.3352 C   0  0  0  0  0  0  0  0  0  0  0  0
    2.6999    2.3817   -2.2496 F   0  0  0  0  0  0  0  0  0  0  0  0
    4.3615    1.0012   -2.0691 F   0  0  0  0  0  0  0  0  0  0  0  0
    4.2016    2.6961   -0.7132 F   0  0  0  0  0  0  0  0  0  0  0  0
    6.3547   -1.4294   -0.0156 H   0  0  0  0  0  0  0  0  0  0  0  0
    5.0266   -1.2552   -1.1377 H   0  0  0  0  0  0  0  0  0  0  0  0
    4.8359   -2.2351    0.2964 H   0  0  0  0  0  0  0  0  0  0  0  0
    5.2680    0.7389    0.2570 H   0  0  0  0  0  0  0  0  0  0  0  0
    5.0594   -0.2678    1.6926 H   0  0  0  0  0  0  0  0  0  0  0  0
    2.9450   -1.3625    2.1254 H   0  0  0  0  0  0  0  0  0  0  0  0
    0.5371   -1.1993    2.0565 H   0  0  0  0  0  0  0  0  0  0  0  0
   -2.9356   -3.1403    0.4665 H   0  0  0  0  0  0  0  0  0  0  0  0
   -5.3502   -3.3961    0.4171 H   0  0  0  0  0  0  0  0  0  0  0  0
   -6.7804   -1.4337    0.3711 H   0  0  0  0  0  0  0  0  0  0  0  0
   -6.9765    0.8585    0.3484 H   0  0  0  0  0  0  0  0  0  0  0  0
   -1.6222    3.4782    0.4430 H   0  0  0  0  0  0  0  0  0  0  0  0
    0.8134    1.5901   -1.0648 H   0  0  0  0  0  0  0  0  0  0  0  0
  1  2  1  0  0  0  0
  1 26  1  0  0  0  0
  1 27  1  0  0  0  0
  1 28  1  0  0  0  0
  2  3  1  0  0  0  0
  2 29  1  0  0  0  0
  2 30  1  0  0  0  0
  3  4  2  0  0  0  0
  4  5  1  0  0  0  0
  4 31  1  0  0  0  0
  5  6  2  0  0  0  0
  5 32  1  0  0  0  0
  6  7  1  0  0  0  0
  6 20  1  0  0  0  0
  7  8  1  0  0  0  0
  8  9  1  0  0  0  0
  9 10  2  0  0  0  0
 10 11  1  0  0  0  0
 10 33  1  0  0  0  0
 11 12  2  0  0  0  0
 11 34  1  0  0  0  0
 12 13  1  0  0  0  0
 12 35  1  0  0  0  0
 13 14  1  0  0  0  0
 13 15  2  0  0  0  0
 14 36  1  0  0  0  0
 15 16  1  0  0  0  0
 15  9  1  0  0  0  0
 16 17  2  0  0  0  0
 16 18  1  0  0  0  0
 18 19  1  0  0  0  0
 18  7  2  0  0  0  0
 19 37  1  0  0  0  0
 20 21  2  0  0  0  0
 20 38  1  0  0  0  0
 21 22  1  0  0  0  0
 21  3  1  0  0  0  0
 22 23  1  0  0  0  0
 22 24  1  0  0  0  0
 22 25  1  0  0  0  0
M  END
$$$$
