
 OpenBabel08202615343D

 36 38  0  0  0  0  0  0  0  0999 V2000
    4.0457   -2.6238    0.5237 C   0  0  0  0  0  0  0  0  0  0  0  0
    3.4621   -1.8076    1.4091 C   0  0  0  0  0  0  0  0  0  0  0  0
    2.8376   -0.5453    1.0030 C   0  0  0  0  0  0  0  0  0  0  0  0
    1.4463   -0.5335    0.8108 C   0  0  0  0  0  0  0  0  0  0  0  0
    0.7735    0.6349    0.4221 C   0  0  0  0  0  0  0  0  0  0  0  0
   -0.6878    0.6036    0.2026 C   0  0  0  0  0  0  0  0  0  0  0  0
   -1.0970   -0.4871   -0.5557 O   0  0  0  0  0  0  0  0  0  0  0  0
   -2.4313   -0.6376   -0.8346 C   0  0  0  0  0  0  0  0  0  0  0  0
   -2.7961   -1.7387   -1.6106 C   0  0  0  0  0  0  0  0  0  0  0  0
   -4.1390   -1.9517   -1.9296 C   0  0  0  0  0  0  0  0  0  0  0  0
   -5.1162   -1.0649   -1.4728 C   0  0  0  0  0  0  0  0  0  0  0  0
   -4.7494    0.0328   -0.6986 C   0  0  0  0  0  0  0  0  0  0  0  0
   -5.7567    0.8604   -0.2840 O   0  0  0  0  0  0  0  0  0  0  0  0
   -3.4055    0.2461   -0.3802 C   0  0  0  0  0  0  0  0  0  0  0  0
   -2.9775    1.3867    0.4311 C   0  0  0  0  0  0  0  0  0  0  0  0
   -3.7784    2.2064    0.8757 O   0  0  0  0  0  0  0  0  0  0  0  0
   -1.5288    1.5260    0.7060 C   0  0  0  0  0  0  0  0  0  0  0  0
   -1.1359    2.5984    1.4851 O   0  0  0  0  0  0  0  0  0  0  0  0
    1.5249    1.7963    0.2113 C   0  0  0  0  0  0  0  0  0  0  0  0
    2.9100    1.7949    0.3991 C   0  0  0  0  0  0  0  0  0  0  0  0
    3.5822    0.6302    0.7985 C   0  0  0  0  0  0  0  0  0  0  0  0
    5.0765    0.6622    0.9912 C   0  0  0  0  0  0  0  0  0  0  0  0
    5.6163    1.9090    0.8508 F   0  0  0  0  0  0  0  0  0  0  0  0
    4.4769   -3.5060    0.8413 H   0  0  0  0  0  0  0  0  0  0  0  0
    4.0646   -2.3711   -0.4767 H   0  0  0  0  0  0  0  0  0  0  0  0
    3.4514   -2.0744    2.4059 H   0  0  0  0  0  0  0  0  0  0  0  0
    0.9081   -1.4016    0.9584 H   0  0  0  0  0  0  0  0  0  0  0  0
   -2.0745   -2.3947   -1.9483 H   0  0  0  0  0  0  0  0  0  0  0  0
   -4.4095   -2.7655   -2.5037 H   0  0  0  0  0  0  0  0  0  0  0  0
   -6.1084   -1.2228   -1.7086 H   0  0  0  0  0  0  0  0  0  0  0  0
   -6.6435    0.6754   -0.5234 H   0  0  0  0  0  0  0  0  0  0  0  0
   -1.7750    3.2049    1.8039 H   0  0  0  0  0  0  0  0  0  0  0  0
    1.0512    2.6636   -0.0861 H   0  0  0  0  0  0  0  0  0  0  0  0
    3.4456    2.6629    0.2417 H   0  0  0  0  0  0  0  0  0  0  0  0
    5.5255    0.0150    0.2670 H   0  0  0  0  0  0  0  0  0  0  0  0
    5.2718    0.3452    1.9943 H   0  0  0  0  0  0  0  0  0  0  0  0
  1  2  2  0  0  0  0
  1 24  1  0  0  0  0
  1 25  1  0  0  0  0
  2  3  1  0  0  0  0
  2 26  1  0  0  0  0
  3  4  2  0  0  0  0
  4  5  1  0  0  0  0
  4 27  1  0  0  0  0
  5  6  1  0  0  0  0
  5 19  2  0  0  0  0
  6  7  1  0  0  0  0
  7  8  1  0  0  0  0
  8  9  2  0  0  0  0
  9 10  1  0  0  0  0
  9 28  1  0  0  0  0
 10 11  2  0  0  0  0
 10 29  1  0  0  0  0
 11 12  1  0  0  0  0
 11 30  1  0  0  0  0
 12 13  1  0  0  0  0
 12 14  2  0  0  0  0
 13 31  1  0  0  0  0
 14 15  1  0  0  0  0
 14  8  1  0  0  0  0
 15 16  2  0  0  0  0
 15 17  1  0  0  0  0
 17 18  1  0  0  0  0
 17  6  2  0  0  0  0
 18 32  1  0  0  0  0
 19 20  1  0  0  0  0
 19 33  1  0  0  0  0
 20 21  2  0  0  0  0
 20 34  1  0  0  0  0
 21 22  1  0  0  0  0
 21  3  1  0  0  0  0
 22 23  1  0  0  0  0
 22 35  1  0  0  0  0
 22 36  1  0  0  0  0
M  END
$$$$
