
 OpenBabel08202615333D

 41 43  0  0  0  0  0  0  0  0999 V2000
    5.2558    1.9545    1.0503 C   0  0  0  0  0  0  0  0  0  0  0  0
    4.0879    0.9822    1.0984 C   0  0  0  0  0  0  0  0  0  0  0  0
    3.6119    0.6118   -0.3076 C   0  0  0  0  0  0  0  0  0  0  0  0
    2.4565   -0.3649   -0.2693 C   0  0  0  0  0  0  0  0  0  0  0  0
    1.1510    0.1512   -0.1439 C   0  0  0  0  0  0  0  0  0  0  0  0
    0.0295   -0.6873   -0.0794 C   0  0  0  0  0  0  0  0  0  0  0  0
   -1.3424   -0.1467    0.0255 C   0  0  0  0  0  0  0  0  0  0  0  0
   -2.2255   -0.7371   -0.8715 O   0  0  0  0  0  0  0  0  0  0  0  0
   -3.5342   -0.3274   -0.8811 C   0  0  0  0  0  0  0  0  0  0  0  0
   -4.3818   -0.9359   -1.8079 C   0  0  0  0  0  0  0  0  0  0  0  0
   -5.7273   -0.5661   -1.8690 C   0  0  0  0  0  0  0  0  0  0  0  0
   -6.2247    0.4107   -1.0040 C   0  0  0  0  0  0  0  0  0  0  0  0
   -5.3767    1.0161   -0.0802 C   0  0  0  0  0  0  0  0  0  0  0  0
   -5.9292    1.9642    0.7368 O   0  0  0  0  0  0  0  0  0  0  0  0
   -4.0303    0.6463   -0.0199 C   0  0  0  0  0  0  0  0  0  0  0  0
   -3.1054    1.2575    0.9357 C   0  0  0  0  0  0  0  0  0  0  0  0
   -3.4696    2.1186    1.7340 O   0  0  0  0  0  0  0  0  0  0  0  0
   -1.6966    0.8011    0.9133 C   0  0  0  0  0  0  0  0  0  0  0  0
   -0.8349    1.3760    1.8292 O   0  0  0  0  0  0  0  0  0  0  0  0
    0.2301   -2.0693   -0.1593 C   0  0  0  0  0  0  0  0  0  0  0  0
    1.5178   -2.5983   -0.2783 C   0  0  0  0  0  0  0  0  0  0  0  0
    2.6415   -1.7599   -0.3248 C   0  0  0  0  0  0  0  0  0  0  0  0
    4.0056   -2.3790   -0.4591 C   0  0  0  0  0  0  0  0  0  0  0  0
    5.5633    2.1922    2.0472 H   0  0  0  0  0  0  0  0  0  0  0  0
    4.9544    2.8494    0.5471 H   0  0  0  0  0  0  0  0  0  0  0  0
    6.0716    1.5062    0.5227 H   0  0  0  0  0  0  0  0  0  0  0  0
    3.2788    1.4360    1.6316 H   0  0  0  0  0  0  0  0  0  0  0  0
    4.4131    0.0892    1.5901 H   0  0  0  0  0  0  0  0  0  0  0  0
    4.4246    0.1665   -0.8425 H   0  0  0  0  0  0  0  0  0  0  0  0
    3.2770    1.5051   -0.7921 H   0  0  0  0  0  0  0  0  0  0  0  0
    1.0172    1.1735   -0.0984 H   0  0  0  0  0  0  0  0  0  0  0  0
   -4.0149   -1.6581   -2.4473 H   0  0  0  0  0  0  0  0  0  0  0  0
   -6.3546   -1.0154   -2.5543 H   0  0  0  0  0  0  0  0  0  0  0  0
   -7.2190    0.6835   -1.0493 H   0  0  0  0  0  0  0  0  0  0  0  0
   -6.8381    2.1782    0.6584 H   0  0  0  0  0  0  0  0  0  0  0  0
   -1.1487    2.0322    2.4198 H   0  0  0  0  0  0  0  0  0  0  0  0
   -0.5821   -2.7053   -0.1300 H   0  0  0  0  0  0  0  0  0  0  0  0
    1.6441   -3.6211   -0.3328 H   0  0  0  0  0  0  0  0  0  0  0  0
    3.9130   -3.4447   -0.4815 H   0  0  0  0  0  0  0  0  0  0  0  0
    4.6116   -2.0911    0.3744 H   0  0  0  0  0  0  0  0  0  0  0  0
    4.4627   -2.0416   -1.3658 H   0  0  0  0  0  0  0  0  0  0  0  0
  1  2  1  0  0  0  0
  1 24  1  0  0  0  0
  1 25  1  0  0  0  0
  1 26  1  0  0  0  0
  2  3  1  0  0  0  0
  2 27  1  0  0  0  0
  2 28  1  0  0  0  0
  3  4  1  0  0  0  0
  3 29  1  0  0  0  0
  3 30  1  0  0  0  0
  4  5  2  0  0  0  0
  5  6  1  0  0  0  0
  5 31  1  0  0  0  0
  6  7  1  0  0  0  0
  6 20  2  0  0  0  0
  7  8  1  0  0  0  0
  8  9  1  0  0  0  0
  9 10  2  0  0  0  0
 10 11  1  0  0  0  0
 10 32  1  0  0  0  0
 11 12  2  0  0  0  0
 11 33  1  0  0  0  0
 12 13  1  0  0  0  0
 12 34  1  0  0  0  0
 13 14  1  0  0  0  0
 13 15  2  0  0  0  0
 14 35  1  0  0  0  0
 15 16  1  0  0  0  0
 15  9  1  0  0  0  0
 16 17  2  0  0  0  0
 16 18  1  0  0  0  0
 18 19  1  0  0  0  0
 18  7  2  0  0  0  0
 19 36  1  0  0  0  0
 20 21  1  0  0  0  0
 20 37  1  0  0  0  0
 21 22  2  0  0  0  0
 21 38  1  0  0  0  0
 22 23  1  0  0  0  0
 22  4  1  0  0  0  0
 23 39  1  0  0  0  0
 23 40  1  0  0  0  0
 23 41  1  0  0  0  0
M  END
$$$$
