
 OpenBabel08202615353D

 35 37  0  0  0  0  0  0  0  0999 V2000
    5.2926   -0.3782    0.3393 C   0  0  0  0  0  0  0  0  0  0  0  0
    3.7918   -0.3964    0.2396 C   0  0  0  0  0  0  0  0  0  0  0  0
    3.0907   -1.5341    0.6632 C   0  0  0  0  0  0  0  0  0  0  0  0
    1.6965   -1.5877    0.5861 C   0  0  0  0  0  0  0  0  0  0  0  0
    0.9661   -0.5090    0.0775 C   0  0  0  0  0  0  0  0  0  0  0  0
   -0.5107   -0.5303    0.0084 C   0  0  0  0  0  0  0  0  0  0  0  0
   -1.0906    0.6354    0.4959 O   0  0  0  0  0  0  0  0  0  0  0  0
   -2.4568    0.7519    0.4853 C   0  0  0  0  0  0  0  0  0  0  0  0
   -2.9957    1.9353    0.9921 C   0  0  0  0  0  0  0  0  0  0  0  0
   -4.3802    2.1185    1.0102 C   0  0  0  0  0  0  0  0  0  0  0  0
   -5.2249    1.1196    0.5217 C   0  0  0  0  0  0  0  0  0  0  0  0
   -4.6844   -0.0598    0.0161 C   0  0  0  0  0  0  0  0  0  0  0  0
   -5.5683   -0.9959   -0.4467 O   0  0  0  0  0  0  0  0  0  0  0  0
   -3.2990   -0.2428   -0.0015 C   0  0  0  0  0  0  0  0  0  0  0  0
   -2.6897   -1.4662   -0.5252 C   0  0  0  0  0  0  0  0  0  0  0  0
   -3.3657   -2.3878   -0.9780 O   0  0  0  0  0  0  0  0  0  0  0  0
   -1.2120   -1.5632   -0.4946 C   0  0  0  0  0  0  0  0  0  0  0  0
   -0.6472   -2.7167   -1.0070 O   0  0  0  0  0  0  0  0  0  0  0  0
    1.6681    0.6336   -0.3355 C   0  0  0  0  0  0  0  0  0  0  0  0
    3.0718    0.7058   -0.2630 C   0  0  0  0  0  0  0  0  0  0  0  0
    3.7721    1.9575   -0.7304 C   0  0  0  0  0  0  0  0  0  0  0  0
    2.9200    2.9401   -1.1441 F   0  0  0  0  0  0  0  0  0  0  0  0
    5.6344   -1.3078    0.7442 H   0  0  0  0  0  0  0  0  0  0  0  0
    5.5979    0.4233    0.9791 H   0  0  0  0  0  0  0  0  0  0  0  0
    5.7131   -0.2372   -0.6345 H   0  0  0  0  0  0  0  0  0  0  0  0
    3.6113   -2.3430    1.0370 H   0  0  0  0  0  0  0  0  0  0  0  0
    1.2000   -2.4332    0.9082 H   0  0  0  0  0  0  0  0  0  0  0  0
   -2.3720    2.6741    1.3530 H   0  0  0  0  0  0  0  0  0  0  0  0
   -4.7794    2.9932    1.3851 H   0  0  0  0  0  0  0  0  0  0  0  0
   -6.2479    1.2553    0.5354 H   0  0  0  0  0  0  0  0  0  0  0  0
   -6.4894   -0.8272   -0.4138 H   0  0  0  0  0  0  0  0  0  0  0  0
   -1.1960   -3.3982   -1.3420 H   0  0  0  0  0  0  0  0  0  0  0  0
    1.1415    1.4420   -0.7019 H   0  0  0  0  0  0  0  0  0  0  0  0
    4.4139    1.7007   -1.5472 H   0  0  0  0  0  0  0  0  0  0  0  0
    4.3133    2.3448    0.1074 H   0  0  0  0  0  0  0  0  0  0  0  0
  1  2  1  0  0  0  0
  1 23  1  0  0  0  0
  1 24  1  0  0  0  0
  1 25  1  0  0  0  0
  2  3  2  0  0  0  0
  3  4  1  0  0  0  0
  3 26  1  0  0  0  0
  4  5  2  0  0  0  0
  4 27  1  0  0  0  0
  5  6  1  0  0  0  0
  5 19  1  0  0  0  0
  6  7  1  0  0  0  0
  7  8  1  0  0  0  0
  8  9  2  0  0  0  0
  9 10  1  0  0  0  0
  9 28  1  0  0  0  0
 10 11  2  0  0  0  0
 10 29  1  0  0  0  0
 11 12  1  0  0  0  0
 11 30  1  0  0  0  0
 12 13  1  0  0  0  0
 12 14  2  0  0  0  0
 13 31  1  0  0  0  0
 14 15  1  0  0  0  0
 14  8  1  0  0  0  0
 15 16  2  0  0  0  0
 15 17  1  0  0  0  0
 17 18  1  0  0  0  0
 17  6  2  0  0  0  0
 18 32  1  0  0  0  0
 19 20  2  0  0  0  0
 19 33  1  0  0  0  0
 20 21  1  0  0  0  0
 20  2  1  0  0  0  0
 21 22  1  0  0  0  0
 21 34  1  0  0  0  0
 21 35  1  0  0  0  0
M  END
$$$$
