
 OpenBabel08202615313D

 45 48  0  0  0  0  0  0  0  0999 V2000
   -2.0674   -0.5077    2.3324 C   0  0  0  0  0  0  0  0  0  0  0  0
   -1.4267   -0.7962    1.0017 C   0  0  0  0  0  0  0  0  0  0  0  0
   -0.0315   -0.6478    0.8811 C   0  0  0  0  0  0  0  0  0  0  0  0
    0.6354   -0.8835   -0.3309 C   0  0  0  0  0  0  0  0  0  0  0  0
    2.0991   -0.6933   -0.4152 C   0  0  0  0  0  0  0  0  0  0  0  0
    2.5250    0.4891    0.1793 O   0  0  0  0  0  0  0  0  0  0  0  0
    3.8627    0.7908    0.1727 C   0  0  0  0  0  0  0  0  0  0  0  0
    4.2436    1.9942    0.7681 C   0  0  0  0  0  0  0  0  0  0  0  0
    5.5910    2.3610    0.7972 C   0  0  0  0  0  0  0  0  0  0  0  0
    6.5563    1.5252    0.2320 C   0  0  0  0  0  0  0  0  0  0  0  0
    6.1733    0.3251   -0.3612 C   0  0  0  0  0  0  0  0  0  0  0  0
    7.1696   -0.4458   -0.8949 O   0  0  0  0  0  0  0  0  0  0  0  0
    4.8250   -0.0412   -0.3908 C   0  0  0  0  0  0  0  0  0  0  0  0
    4.3798   -1.2933   -1.0041 C   0  0  0  0  0  0  0  0  0  0  0  0
    5.1697   -2.0843   -1.5158 O   0  0  0  0  0  0  0  0  0  0  0  0
    2.9277   -1.5850   -0.9897 C   0  0  0  0  0  0  0  0  0  0  0  0
    2.5202   -2.7768   -1.5602 O   0  0  0  0  0  0  0  0  0  0  0  0
   -0.1241   -1.2529   -1.4442 C   0  0  0  0  0  0  0  0  0  0  0  0
   -1.5105   -1.3935   -1.3457 C   0  0  0  0  0  0  0  0  0  0  0  0
   -2.1804   -1.1647   -0.1312 C   0  0  0  0  0  0  0  0  0  0  0  0
   -3.6897   -1.3239   -0.0959 C   0  0  0  0  0  0  0  0  0  0  0  0
   -4.4721   -0.0360    0.0458 C   0  0  0  0  0  0  0  0  0  0  0  0
   -5.4842    0.0686    1.0120 C   0  0  0  0  0  0  0  0  0  0  0  0
   -6.2300    1.2424    1.1370 C   0  0  0  0  0  0  0  0  0  0  0  0
   -5.9797    2.3216    0.2926 C   0  0  0  0  0  0  0  0  0  0  0  0
   -4.9867    2.2270   -0.6797 C   0  0  0  0  0  0  0  0  0  0  0  0
   -4.2405    1.0538   -0.8065 C   0  0  0  0  0  0  0  0  0  0  0  0
   -1.3111   -0.2495    3.0439 H   0  0  0  0  0  0  0  0  0  0  0  0
   -2.5937   -1.3758    2.6705 H   0  0  0  0  0  0  0  0  0  0  0  0
   -2.7529    0.3073    2.2290 H   0  0  0  0  0  0  0  0  0  0  0  0
    0.5155   -0.3577    1.7067 H   0  0  0  0  0  0  0  0  0  0  0  0
    3.5307    2.6122    1.1863 H   0  0  0  0  0  0  0  0  0  0  0  0
    5.8735    3.2508    1.2370 H   0  0  0  0  0  0  0  0  0  0  0  0
    7.5518    1.7965    0.2539 H   0  0  0  0  0  0  0  0  0  0  0  0
    8.0600   -0.1573   -0.8505 H   0  0  0  0  0  0  0  0  0  0  0  0
    3.1520   -3.3527   -1.9438 H   0  0  0  0  0  0  0  0  0  0  0  0
    0.3438   -1.4235   -2.3481 H   0  0  0  0  0  0  0  0  0  0  0  0
   -2.0524   -1.6702   -2.1792 H   0  0  0  0  0  0  0  0  0  0  0  0
   -3.9365   -1.9537    0.7332 H   0  0  0  0  0  0  0  0  0  0  0  0
   -3.9663   -1.7357   -1.0439 H   0  0  0  0  0  0  0  0  0  0  0  0
   -5.6792   -0.7297    1.6363 H   0  0  0  0  0  0  0  0  0  0  0  0
   -6.9674    1.3105    1.8557 H   0  0  0  0  0  0  0  0  0  0  0  0
   -6.5292    3.1900    0.3872 H   0  0  0  0  0  0  0  0  0  0  0  0
   -4.8023    3.0253   -1.3072 H   0  0  0  0  0  0  0  0  0  0  0  0
   -3.5117    0.9877   -1.5341 H   0  0  0  0  0  0  0  0  0  0  0  0
  1  2  1  0  0  0  0
  1 28  1  0  0  0  0
  1 29  1  0  0  0  0
  1 30  1  0  0  0  0
  2  3  2  0  0  0  0
  3  4  1  0  0  0  0
  3 31  1  0  0  0  0
  4  5  1  0  0  0  0
  4 18  2  0  0  0  0
  5  6  1  0  0  0  0
  6  7  1  0  0  0  0
  7  8  2  0  0  0  0
  8  9  1  0  0  0  0
  8 32  1  0  0  0  0
  9 10  2  0  0  0  0
  9 33  1  0  0  0  0
 10 11  1  0  0  0  0
 10 34  1  0  0  0  0
 11 12  1  0  0  0  0
 11 13  2  0  0  0  0
 12 35  1  0  0  0  0
 13 14  1  0  0  0  0
 13  7  1  0  0  0  0
 14 15  2  0  0  0  0
 14 16  1  0  0  0  0
 16 17  1  0  0  0  0
 16  5  2  0  0  0  0
 17 36  1  0  0  0  0
 18 19  1  0  0  0  0
 18 37  1  0  0  0  0
 19 20  2  0  0  0  0
 19 38  1  0  0  0  0
 20 21  1  0  0  0  0
 20  2  1  0  0  0  0
 21 22  1  0  0  0  0
 21 39  1  0  0  0  0
 21 40  1  0  0  0  0
 22 23  2  0  0  0  0
 23 24  1  0  0  0  0
 23 41  1  0  0  0  0
 24 25  2  0  0  0  0
 24 42  1  0  0  0  0
 25 26  1  0  0  0  0
 25 43  1  0  0  0  0
 26 27  2  0  0  0  0
 26 44  1  0  0  0  0
 27 22  1  0  0  0  0
 27 45  1  0  0  0  0
M  END
$$$$
