
 OpenBabel08202615323D

 35 37  0  0  0  0  0  0  0  0999 V2000
    5.0773    0.9631    1.1496 C   0  0  0  0  0  0  0  0  0  0  0  0
    3.6471    0.7031    0.7606 C   0  0  0  0  0  0  0  0  0  0  0  0
    2.6685    1.6499    1.0964 C   0  0  0  0  0  0  0  0  0  0  0  0
    1.3274    1.4434    0.7645 C   0  0  0  0  0  0  0  0  0  0  0  0
    0.9282    0.2861    0.0875 C   0  0  0  0  0  0  0  0  0  0  0  0
   -0.4976    0.0784   -0.2395 C   0  0  0  0  0  0  0  0  0  0  0  0
   -1.3424    0.3317    0.8346 O   0  0  0  0  0  0  0  0  0  0  0  0
   -2.6943    0.1731    0.6656 C   0  0  0  0  0  0  0  0  0  0  0  0
   -3.5047    0.4212    1.7744 C   0  0  0  0  0  0  0  0  0  0  0  0
   -4.8903    0.2806    1.6695 C   0  0  0  0  0  0  0  0  0  0  0  0
   -5.4650   -0.1071    0.4574 C   0  0  0  0  0  0  0  0  0  0  0  0
   -4.6540   -0.3541   -0.6473 C   0  0  0  0  0  0  0  0  0  0  0  0
   -5.2823   -0.7293   -1.8031 O   0  0  0  0  0  0  0  0  0  0  0  0
   -3.2675   -0.2143   -0.5419 C   0  0  0  0  0  0  0  0  0  0  0  0
   -2.3795   -0.4640   -1.6784 C   0  0  0  0  0  0  0  0  0  0  0  0
   -2.8095   -0.8003   -2.7798 O   0  0  0  0  0  0  0  0  0  0  0  0
   -0.9244   -0.2956   -1.4598 C   0  0  0  0  0  0  0  0  0  0  0  0
   -0.0937   -0.5210   -2.5422 O   0  0  0  0  0  0  0  0  0  0  0  0
    1.9029   -0.6710   -0.2277 C   0  0  0  0  0  0  0  0  0  0  0  0
    3.2594   -0.4838    0.1050 C   0  0  0  0  0  0  0  0  0  0  0  0
    4.2628   -1.5438   -0.2885 C   0  0  0  0  0  0  0  0  0  0  0  0
    3.6896   -2.7285   -0.6484 F   0  0  0  0  0  0  0  0  0  0  0  0
    5.1343   -1.8561    0.7116 F   0  0  0  0  0  0  0  0  0  0  0  0
    5.1482    1.9156    1.6319 H   0  0  0  0  0  0  0  0  0  0  0  0
    5.6914    0.9604    0.2734 H   0  0  0  0  0  0  0  0  0  0  0  0
    5.4092    0.1982    1.8201 H   0  0  0  0  0  0  0  0  0  0  0  0
    2.9428    2.5106    1.5953 H   0  0  0  0  0  0  0  0  0  0  0  0
    0.6232    2.1526    1.0216 H   0  0  0  0  0  0  0  0  0  0  0  0
   -3.0808    0.7081    2.6705 H   0  0  0  0  0  0  0  0  0  0  0  0
   -5.4903    0.4635    2.4890 H   0  0  0  0  0  0  0  0  0  0  0  0
   -6.4889   -0.2104    0.3804 H   0  0  0  0  0  0  0  0  0  0  0  0
   -6.2156   -0.8094   -1.8242 H   0  0  0  0  0  0  0  0  0  0  0  0
   -0.4574   -0.7801   -3.3659 H   0  0  0  0  0  0  0  0  0  0  0  0
    1.6197   -1.5349   -0.7160 H   0  0  0  0  0  0  0  0  0  0  0  0
    4.7674   -1.0938   -1.1179 H   0  0  0  0  0  0  0  0  0  0  0  0
  1  2  1  0  0  0  0
  1 24  1  0  0  0  0
  1 25  1  0  0  0  0
  1 26  1  0  0  0  0
  2  3  2  0  0  0  0
  3  4  1  0  0  0  0
  3 27  1  0  0  0  0
  4  5  2  0  0  0  0
  4 28  1  0  0  0  0
  5  6  1  0  0  0  0
  5 19  1  0  0  0  0
  6  7  1  0  0  0  0
  7  8  1  0  0  0  0
  8  9  2  0  0  0  0
  9 10  1  0  0  0  0
  9 29  1  0  0  0  0
 10 11  2  0  0  0  0
 10 30  1  0  0  0  0
 11 12  1  0  0  0  0
 11 31  1  0  0  0  0
 12 13  1  0  0  0  0
 12 14  2  0  0  0  0
 13 32  1  0  0  0  0
 14 15  1  0  0  0  0
 14  8  1  0  0  0  0
 15 16  2  0  0  0  0
 15 17  1  0  0  0  0
 17 18  1  0  0  0  0
 17  6  2  0  0  0  0
 18 33  1  0  0  0  0
 19 20  2  0  0  0  0
 19 34  1  0  0  0  0
 20 21  1  0  0  0  0
 20  2  1  0  0  0  0
 21 22  1  0  0  0  0
 21 23  1  0  0  0  0
 21 35  1  0  0  0  0
M  END
$$$$
