
 OpenBabel08202615333D

 53 56  0  0  0  0  0  0  0  0999 V2000
    2.0294    3.0014    0.4912 C   0  0  0  0  0  0  0  0  0  0  0  0
    1.7240    2.2363   -0.7880 C   0  0  0  0  0  0  0  0  0  0  0  0
    0.8791    1.0089   -0.5263 C   0  0  0  0  0  0  0  0  0  0  0  0
   -0.5218    1.1175   -0.6372 C   0  0  0  0  0  0  0  0  0  0  0  0
   -1.3632    0.0229   -0.3995 C   0  0  0  0  0  0  0  0  0  0  0  0
   -2.8342    0.1360   -0.4903 C   0  0  0  0  0  0  0  0  0  0  0  0
   -3.4870   -0.4242    0.6019 O   0  0  0  0  0  0  0  0  0  0  0  0
   -4.8571   -0.3865    0.6466 C   0  0  0  0  0  0  0  0  0  0  0  0
   -5.4701   -0.9464    1.7685 C   0  0  0  0  0  0  0  0  0  0  0  0
   -6.8626   -0.9429    1.8758 C   0  0  0  0  0  0  0  0  0  0  0  0
   -7.6414   -0.3805    0.8624 C   0  0  0  0  0  0  0  0  0  0  0  0
   -7.0271    0.1773   -0.2558 C   0  0  0  0  0  0  0  0  0  0  0  0
   -7.8492    0.7102   -1.2108 O   0  0  0  0  0  0  0  0  0  0  0  0
   -5.6336    0.1743   -0.3626 C   0  0  0  0  0  0  0  0  0  0  0  0
   -4.9483    0.7499   -1.5207 C   0  0  0  0  0  0  0  0  0  0  0  0
   -5.5648    1.2560   -2.4561 O   0  0  0  0  0  0  0  0  0  0  0  0
   -3.4680    0.7032   -1.5335 C   0  0  0  0  0  0  0  0  0  0  0  0
   -2.8315    1.2377   -2.6383 O   0  0  0  0  0  0  0  0  0  0  0  0
   -0.7794   -1.1922   -0.0268 C   0  0  0  0  0  0  0  0  0  0  0  0
    0.6088   -1.3110    0.0943 C   0  0  0  0  0  0  0  0  0  0  0  0
    1.4566   -0.2190   -0.1446 C   0  0  0  0  0  0  0  0  0  0  0  0
    2.8571   -0.3192   -0.0329 N   0  0  0  0  0  0  0  0  0  0  0  0
    3.3283   -0.8109    1.2800 C   0  0  0  0  0  0  0  0  0  0  0  0
    4.8734   -0.7503    1.3364 C   0  0  0  0  0  0  0  0  0  0  0  0
    5.5097   -1.5244    0.2441 N   0  3  0  0  0  0  0  0  0  0  0  0
    6.9638   -1.3953    0.3023 C   0  0  0  0  0  0  0  0  0  0  0  0
    4.9953   -1.0393   -1.0589 C   0  0  0  0  0  0  0  0  0  0  0  0
    3.4510   -1.0904   -1.1484 C   0  0  0  0  0  0  0  0  0  0  0  0
    2.6268    3.8585    0.2602 H   0  0  0  0  0  0  0  0  0  0  0  0
    2.5628    2.3667    1.1677 H   0  0  0  0  0  0  0  0  0  0  0  0
    1.1134    3.3170    0.9453 H   0  0  0  0  0  0  0  0  0  0  0  0
    2.6463    1.9315   -1.2368 H   0  0  0  0  0  0  0  0  0  0  0  0
    1.1732    2.8844   -1.4372 H   0  0  0  0  0  0  0  0  0  0  0  0
   -0.9375    2.0248   -0.8997 H   0  0  0  0  0  0  0  0  0  0  0  0
   -4.8952   -1.3624    2.5178 H   0  0  0  0  0  0  0  0  0  0  0  0
   -7.3166   -1.3565    2.7052 H   0  0  0  0  0  0  0  0  0  0  0  0
   -8.6703   -0.3783    0.9420 H   0  0  0  0  0  0  0  0  0  0  0  0
   -8.7786    0.6884   -1.0940 H   0  0  0  0  0  0  0  0  0  0  0  0
   -3.3352    1.6183   -3.3306 H   0  0  0  0  0  0  0  0  0  0  0  0
   -1.3798   -2.0103    0.1610 H   0  0  0  0  0  0  0  0  0  0  0  0
    1.0174   -2.2193    0.3646 H   0  0  0  0  0  0  0  0  0  0  0  0
    3.0069   -1.8222    1.4171 H   0  0  0  0  0  0  0  0  0  0  0  0
    2.9213   -0.1959    2.0553 H   0  0  0  0  0  0  0  0  0  0  0  0
    5.1989   -1.1487    2.2746 H   0  0  0  0  0  0  0  0  0  0  0  0
    5.1640    0.2732    1.2230 H   0  0  0  0  0  0  0  0  0  0  0  0
    5.2790   -2.5121    0.3517 H   0  0  0  0  0  0  0  0  0  0  0  0
    7.2352   -0.3662    0.1917 H   0  0  0  0  0  0  0  0  0  0  0  0
    7.4045   -1.9672   -0.4873 H   0  0  0  0  0  0  0  0  0  0  0  0
    7.3166   -1.7579    1.2451 H   0  0  0  0  0  0  0  0  0  0  0  0
    5.4036   -1.6501   -1.8368 H   0  0  0  0  0  0  0  0  0  0  0  0
    5.2911   -0.0162   -1.1623 H   0  0  0  0  0  0  0  0  0  0  0  0
    3.1254   -2.1080   -1.0894 H   0  0  0  0  0  0  0  0  0  0  0  0
    3.1372   -0.6642   -2.0783 H   0  0  0  0  0  0  0  0  0  0  0  0
  1  2  1  0  0  0  0
  1 29  1  0  0  0  0
  1 30  1  0  0  0  0
  1 31  1  0  0  0  0
  2  3  1  0  0  0  0
  2 32  1  0  0  0  0
  2 33  1  0  0  0  0
  3  4  2  0  0  0  0
  4  5  1  0  0  0  0
  4 34  1  0  0  0  0
  5  6  1  0  0  0  0
  5 19  2  0  0  0  0
  6  7  1  0  0  0  0
  7  8  1  0  0  0  0
  8  9  2  0  0  0  0
  9 10  1  0  0  0  0
  9 35  1  0  0  0  0
 10 11  2  0  0  0  0
 10 36  1  0  0  0  0
 11 12  1  0  0  0  0
 11 37  1  0  0  0  0
 12 13  1  0  0  0  0
 12 14  2  0  0  0  0
 13 38  1  0  0  0  0
 14 15  1  0  0  0  0
 14  8  1  0  0  0  0
 15 16  2  0  0  0  0
 15 17  1  0  0  0  0
 17 18  1  0  0  0  0
 17  6  2  0  0  0  0
 18 39  1  0  0  0  0
 19 20  1  0  0  0  0
 19 40  1  0  0  0  0
 20 21  2  0  0  0  0
 20 41  1  0  0  0  0
 21 22  1  0  0  0  0
 21  3  1  0  0  0  0
 22 23  1  0  0  0  0
 23 24  1  0  0  0  0
 23 42  1  0  0  0  0
 23 43  1  0  0  0  0
 24 25  1  0  0  0  0
 24 44  1  0  0  0  0
 24 45  1  0  0  0  0
 25 26  1  0  0  0  0
 25 27  1  0  0  0  0
 25 46  1  0  0  0  0
 26 47  1  0  0  0  0
 26 48  1  0  0  0  0
 26 49  1  0  0  0  0
 27 28  1  0  0  0  0
 27 50  1  0  0  0  0
 27 51  1  0  0  0  0
 28 22  1  0  0  0  0
 28 52  1  0  0  0  0
 28 53  1  0  0  0  0
M  CHG  1  25   1
M  END
$$$$
