
 OpenBabel08202615313D

 41 43  0  0  0  0  0  0  0  0999 V2000
   -4.0693   -2.5425    0.6112 C   0  0  0  0  0  0  0  0  0  0  0  0
   -2.7526   -1.8161    0.5542 C   0  0  0  0  0  0  0  0  0  0  0  0
   -1.6293   -2.4247    1.1373 C   0  0  0  0  0  0  0  0  0  0  0  0
   -0.3803   -1.8013    1.1195 C   0  0  0  0  0  0  0  0  0  0  0  0
   -0.2190   -0.5480    0.5233 C   0  0  0  0  0  0  0  0  0  0  0  0
    1.1160    0.0861    0.4906 C   0  0  0  0  0  0  0  0  0  0  0  0
    2.1218   -0.7923    0.1038 O   0  0  0  0  0  0  0  0  0  0  0  0
    3.4118   -0.3329    0.0305 C   0  0  0  0  0  0  0  0  0  0  0  0
    4.3868   -1.2446   -0.3769 C   0  0  0  0  0  0  0  0  0  0  0  0
    5.7209   -0.8420   -0.4711 C   0  0  0  0  0  0  0  0  0  0  0  0
    6.0797    0.4706   -0.1577 C   0  0  0  0  0  0  0  0  0  0  0  0
    5.1048    1.3780    0.2485 C   0  0  0  0  0  0  0  0  0  0  0  0
    5.5252    2.6468    0.5406 O   0  0  0  0  0  0  0  0  0  0  0  0
    3.7699    0.9750    0.3418 C   0  0  0  0  0  0  0  0  0  0  0  0
    2.7145    1.8967    0.7645 C   0  0  0  0  0  0  0  0  0  0  0  0
    2.9524    3.0652    1.0637 O   0  0  0  0  0  0  0  0  0  0  0  0
    1.3304    1.3728    0.8229 C   0  0  0  0  0  0  0  0  0  0  0  0
    0.3435    2.2489    1.2358 O   0  0  0  0  0  0  0  0  0  0  0  0
   -1.3383    0.0553   -0.0685 C   0  0  0  0  0  0  0  0  0  0  0  0
   -2.6127   -0.5538   -0.0612 C   0  0  0  0  0  0  0  0  0  0  0  0
   -3.7879    0.1661   -0.7143 C   0  0  0  0  0  0  0  0  0  0  0  0
   -3.5674    0.3513   -2.2188 C   0  0  0  0  0  0  0  0  0  0  0  0
   -4.0757    1.5089   -0.0349 C   0  0  0  0  0  0  0  0  0  0  0  0
   -3.9408   -3.4743    1.1212 H   0  0  0  0  0  0  0  0  0  0  0  0
   -4.4190   -2.7255   -0.3833 H   0  0  0  0  0  0  0  0  0  0  0  0
   -4.7843   -1.9442    1.1363 H   0  0  0  0  0  0  0  0  0  0  0  0
   -1.7288   -3.3484    1.5866 H   0  0  0  0  0  0  0  0  0  0  0  0
    0.4314   -2.2705    1.5507 H   0  0  0  0  0  0  0  0  0  0  0  0
    4.1224   -2.2150   -0.6082 H   0  0  0  0  0  0  0  0  0  0  0  0
    6.4424   -1.5155   -0.7727 H   0  0  0  0  0  0  0  0  0  0  0  0
    7.0656    0.7676   -0.2270 H   0  0  0  0  0  0  0  0  0  0  0  0
    6.4320    2.8694    0.4628 H   0  0  0  0  0  0  0  0  0  0  0  0
    0.5631    3.1337    1.4524 H   0  0  0  0  0  0  0  0  0  0  0  0
   -1.2271    0.9745   -0.5243 H   0  0  0  0  0  0  0  0  0  0  0  0
   -4.6486   -0.4560   -0.5834 H   0  0  0  0  0  0  0  0  0  0  0  0
   -2.7104    0.9713   -2.3800 H   0  0  0  0  0  0  0  0  0  0  0  0
   -4.4294    0.8148   -2.6512 H   0  0  0  0  0  0  0  0  0  0  0  0
   -3.4084   -0.6029   -2.6761 H   0  0  0  0  0  0  0  0  0  0  0  0
   -3.2304    2.1548   -0.1491 H   0  0  0  0  0  0  0  0  0  0  0  0
   -4.2641    1.3488    1.0061 H   0  0  0  0  0  0  0  0  0  0  0  0
   -4.9336    1.9608   -0.4872 H   0  0  0  0  0  0  0  0  0  0  0  0
  1  2  1  0  0  0  0
  1 24  1  0  0  0  0
  1 25  1  0  0  0  0
  1 26  1  0  0  0  0
  2  3  2  0  0  0  0
  3  4  1  0  0  0  0
  3 27  1  0  0  0  0
  4  5  2  0  0  0  0
  4 28  1  0  0  0  0
  5  6  1  0  0  0  0
  5 19  1  0  0  0  0
  6  7  1  0  0  0  0
  7  8  1  0  0  0  0
  8  9  2  0  0  0  0
  9 10  1  0  0  0  0
  9 29  1  0  0  0  0
 10 11  2  0  0  0  0
 10 30  1  0  0  0  0
 11 12  1  0  0  0  0
 11 31  1  0  0  0  0
 12 13  1  0  0  0  0
 12 14  2  0  0  0  0
 13 32  1  0  0  0  0
 14 15  1  0  0  0  0
 14  8  1  0  0  0  0
 15 16  2  0  0  0  0
 15 17  1  0  0  0  0
 17 18  1  0  0  0  0
 17  6  2  0  0  0  0
 18 33  1  0  0  0  0
 19 20  2  0  0  0  0
 19 34  1  0  0  0  0
 20 21  1  0  0  0  0
 20  2  1  0  0  0  0
 21 22  1  0  0  0  0
 21 23  1  0  0  0  0
 21 35  1  0  0  0  0
 22 36  1  0  0  0  0
 22 37  1  0  0  0  0
 22 38  1  0  0  0  0
 23 39  1  0  0  0  0
 23 40  1  0  0  0  0
 23 41  1  0  0  0  0
M  END
$$$$
