
 OpenBabel08202615343D

 40 42  0  0  0  0  0  0  0  0999 V2000
   -5.1999    1.0311    0.7420 C   0  0  0  0  0  0  0  0  0  0  0  0
   -4.4585   -0.0542    0.0916 N   0  0  0  0  0  0  0  0  0  0  0  0
   -4.9446   -0.3744   -1.2583 C   0  0  0  0  0  0  0  0  0  0  0  0
   -3.0555    0.1050    0.0952 C   0  0  0  0  0  0  0  0  0  0  0  0
   -2.4388    1.3196   -0.2428 C   0  0  0  0  0  0  0  0  0  0  0  0
   -1.0454    1.4493   -0.2554 C   0  0  0  0  0  0  0  0  0  0  0  0
   -0.2226    0.3677    0.0708 C   0  0  0  0  0  0  0  0  0  0  0  0
    1.2519    0.4679    0.0342 C   0  0  0  0  0  0  0  0  0  0  0  0
    1.8498   -0.6048   -0.6174 O   0  0  0  0  0  0  0  0  0  0  0  0
    3.2168   -0.6415   -0.7193 C   0  0  0  0  0  0  0  0  0  0  0  0
    3.7730   -1.7319   -1.3895 C   0  0  0  0  0  0  0  0  0  0  0  0
    5.1592   -1.8307   -1.5283 C   0  0  0  0  0  0  0  0  0  0  0  0
    5.9884   -0.8406   -0.9971 C   0  0  0  0  0  0  0  0  0  0  0  0
    5.4306    0.2459   -0.3283 C   0  0  0  0  0  0  0  0  0  0  0  0
    6.2999    1.1787    0.1677 O   0  0  0  0  0  0  0  0  0  0  0  0
    4.0434    0.3446   -0.1900 C   0  0  0  0  0  0  0  0  0  0  0  0
    3.4164    1.4688    0.5063 C   0  0  0  0  0  0  0  0  0  0  0  0
    4.0779    2.3764    1.0062 O   0  0  0  0  0  0  0  0  0  0  0  0
    1.9377    1.4818    0.5939 C   0  0  0  0  0  0  0  0  0  0  0  0
    1.3573    2.5405    1.2680 O   0  0  0  0  0  0  0  0  0  0  0  0
   -0.8327   -0.8515    0.3950 C   0  0  0  0  0  0  0  0  0  0  0  0
   -2.2353   -0.9918    0.4206 C   0  0  0  0  0  0  0  0  0  0  0  0
   -2.8338   -2.3280    0.7759 C   0  0  0  0  0  0  0  0  0  0  0  0
   -1.9890   -3.1042    1.5222 F   0  0  0  0  0  0  0  0  0  0  0  0
   -3.1242   -3.0794   -0.3261 F   0  0  0  0  0  0  0  0  0  0  0  0
   -6.2490    0.8266    0.6916 H   0  0  0  0  0  0  0  0  0  0  0  0
   -4.9921    1.9543    0.2426 H   0  0  0  0  0  0  0  0  0  0  0  0
   -4.8996    1.1043    1.7664 H   0  0  0  0  0  0  0  0  0  0  0  0
   -6.0081   -0.4902   -1.2363 H   0  0  0  0  0  0  0  0  0  0  0  0
   -4.4935   -1.2851   -1.5931 H   0  0  0  0  0  0  0  0  0  0  0  0
   -4.6860    0.4190   -1.9280 H   0  0  0  0  0  0  0  0  0  0  0  0
   -3.0246    2.1334   -0.4869 H   0  0  0  0  0  0  0  0  0  0  0  0
   -0.6202    2.3549   -0.5087 H   0  0  0  0  0  0  0  0  0  0  0  0
    3.1609   -2.4642   -1.7820 H   0  0  0  0  0  0  0  0  0  0  0  0
    5.5713   -2.6365   -2.0241 H   0  0  0  0  0  0  0  0  0  0  0  0
    7.0126   -0.9140   -1.1000 H   0  0  0  0  0  0  0  0  0  0  0  0
    7.2229    1.0685    0.0496 H   0  0  0  0  0  0  0  0  0  0  0  0
    1.8956    3.2143    1.6343 H   0  0  0  0  0  0  0  0  0  0  0  0
   -0.2410   -1.6664    0.6205 H   0  0  0  0  0  0  0  0  0  0  0  0
   -3.7168   -2.0739    1.3242 H   0  0  0  0  0  0  0  0  0  0  0  0
  1  2  1  0  0  0  0
  1 26  1  0  0  0  0
  1 27  1  0  0  0  0
  1 28  1  0  0  0  0
  2  3  1  0  0  0  0
  2  4  1  0  0  0  0
  3 29  1  0  0  0  0
  3 30  1  0  0  0  0
  3 31  1  0  0  0  0
  4  5  2  0  0  0  0
  5  6  1  0  0  0  0
  5 32  1  0  0  0  0
  6  7  2  0  0  0  0
  6 33  1  0  0  0  0
  7  8  1  0  0  0  0
  7 21  1  0  0  0  0
  8  9  1  0  0  0  0
  9 10  1  0  0  0  0
 10 11  2  0  0  0  0
 11 12  1  0  0  0  0
 11 34  1  0  0  0  0
 12 13  2  0  0  0  0
 12 35  1  0  0  0  0
 13 14  1  0  0  0  0
 13 36  1  0  0  0  0
 14 15  1  0  0  0  0
 14 16  2  0  0  0  0
 15 37  1  0  0  0  0
 16 17  1  0  0  0  0
 16 10  1  0  0  0  0
 17 18  2  0  0  0  0
 17 19  1  0  0  0  0
 19 20  1  0  0  0  0
 19  8  2  0  0  0  0
 20 38  1  0  0  0  0
 21 22  2  0  0  0  0
 21 39  1  0  0  0  0
 22 23  1  0  0  0  0
 22  4  1  0  0  0  0
 23 24  1  0  0  0  0
 23 25  1  0  0  0  0
 23 40  1  0  0  0  0
M  END
$$$$
