
 OpenBabel08202615313D

 35 37  0  0  0  0  0  0  0  0999 V2000
    2.9975    0.1733    2.9035 O   0  0  0  0  0  0  0  0  0  0  0  0
    2.4685    0.0625    1.7995 C   0  0  0  0  0  0  0  0  0  0  0  0
    1.0266    0.3533    1.6255 C   0  0  0  0  0  0  0  0  0  0  0  0
    0.3201    0.7336    2.7515 O   0  0  0  0  0  0  0  0  0  0  0  0
    0.4869    0.2171    0.4002 C   0  0  0  0  0  0  0  0  0  0  0  0
   -0.9412    0.4681    0.1121 C   0  0  0  0  0  0  0  0  0  0  0  0
   -1.5853    1.6333    0.5415 C   0  0  0  0  0  0  0  0  0  0  0  0
   -2.9305    1.8606    0.2386 C   0  0  0  0  0  0  0  0  0  0  0  0
   -3.6686    0.9286   -0.5072 C   0  0  0  0  0  0  0  0  0  0  0  0
   -5.1220    1.2063   -0.8216 C   0  0  0  0  0  0  0  0  0  0  0  0
   -5.6578    2.1969   -0.0530 F   0  0  0  0  0  0  0  0  0  0  0  0
   -5.9113    0.1161   -0.6068 F   0  0  0  0  0  0  0  0  0  0  0  0
   -3.0275   -0.2420   -0.9685 C   0  0  0  0  0  0  0  0  0  0  0  0
   -3.7730   -1.2775   -1.7805 C   0  0  0  0  0  0  0  0  0  0  0  0
   -4.5068   -0.7135   -2.7811 F   0  0  0  0  0  0  0  0  0  0  0  0
   -2.9479   -2.1700   -2.3988 F   0  0  0  0  0  0  0  0  0  0  0  0
   -1.6731   -0.4575   -0.6473 C   0  0  0  0  0  0  0  0  0  0  0  0
    1.1999   -0.1940   -0.7198 O   0  0  0  0  0  0  0  0  0  0  0  0
    2.5386   -0.4637   -0.5914 C   0  0  0  0  0  0  0  0  0  0  0  0
    3.2178   -0.8622   -1.7435 C   0  0  0  0  0  0  0  0  0  0  0  0
    4.5824   -1.1532   -1.6817 C   0  0  0  0  0  0  0  0  0  0  0  0
    5.2669   -1.0463   -0.4693 C   0  0  0  0  0  0  0  0  0  0  0  0
    4.5866   -0.6490    0.6788 C   0  0  0  0  0  0  0  0  0  0  0  0
    5.3174   -0.5660    1.8322 O   0  0  0  0  0  0  0  0  0  0  0  0
    3.2214   -0.3573    0.6166 C   0  0  0  0  0  0  0  0  0  0  0  0
    0.7584    0.8093    3.5762 H   0  0  0  0  0  0  0  0  0  0  0  0
   -1.0607    2.3336    1.0886 H   0  0  0  0  0  0  0  0  0  0  0  0
   -3.3873    2.7255    0.5678 H   0  0  0  0  0  0  0  0  0  0  0  0
   -5.1095    1.4915   -1.8528 H   0  0  0  0  0  0  0  0  0  0  0  0
   -4.3927   -1.7692   -1.0600 H   0  0  0  0  0  0  0  0  0  0  0  0
   -1.2077   -1.3170   -0.9785 H   0  0  0  0  0  0  0  0  0  0  0  0
    2.7125   -0.9418   -2.6398 H   0  0  0  0  0  0  0  0  0  0  0  0
    5.0855   -1.4476   -2.5333 H   0  0  0  0  0  0  0  0  0  0  0  0
    6.2752   -1.2614   -0.4243 H   0  0  0  0  0  0  0  0  0  0  0  0
    6.2314   -0.7720    1.8235 H   0  0  0  0  0  0  0  0  0  0  0  0
  1  2  2  0  0  0  0
  2  3  1  0  0  0  0
  3  4  1  0  0  0  0
  3  5  2  0  0  0  0
  4 26  1  0  0  0  0
  5  6  1  0  0  0  0
  5 18  1  0  0  0  0
  6  7  2  0  0  0  0
  7  8  1  0  0  0  0
  7 27  1  0  0  0  0
  8  9  2  0  0  0  0
  8 28  1  0  0  0  0
  9 10  1  0  0  0  0
  9 13  1  0  0  0  0
 10 11  1  0  0  0  0
 10 12  1  0  0  0  0
 10 29  1  0  0  0  0
 13 14  1  0  0  0  0
 13 17  2  0  0  0  0
 14 15  1  0  0  0  0
 14 16  1  0  0  0  0
 14 30  1  0  0  0  0
 17  6  1  0  0  0  0
 17 31  1  0  0  0  0
 18 19  1  0  0  0  0
 19 20  2  0  0  0  0
 20 21  1  0  0  0  0
 20 32  1  0  0  0  0
 21 22  2  0  0  0  0
 21 33  1  0  0  0  0
 22 23  1  0  0  0  0
 22 34  1  0  0  0  0
 23 24  1  0  0  0  0
 23 25  2  0  0  0  0
 24 35  1  0  0  0  0
 25  2  1  0  0  0  0
 25 19  1  0  0  0  0
M  END
$$$$
