
 OpenBabel08202615303D

 45 48  0  0  0  0  0  0  0  0999 V2000
   -3.2594    1.3205    2.3767 C   0  0  0  0  0  0  0  0  0  0  0  0
   -1.9289    0.9758    1.7649 C   0  0  0  0  0  0  0  0  0  0  0  0
   -0.9046    0.5067    2.6015 C   0  0  0  0  0  0  0  0  0  0  0  0
    0.3400    0.1431    2.0818 C   0  0  0  0  0  0  0  0  0  0  0  0
    0.5923    0.2257    0.7089 C   0  0  0  0  0  0  0  0  0  0  0  0
    1.9202   -0.1497    0.1795 C   0  0  0  0  0  0  0  0  0  0  0  0
    2.9683    0.3910    0.9156 O   0  0  0  0  0  0  0  0  0  0  0  0
    4.2568    0.1201    0.5322 C   0  0  0  0  0  0  0  0  0  0  0  0
    5.2776    0.6954    1.2903 C   0  0  0  0  0  0  0  0  0  0  0  0
    6.6125    0.4584    0.9548 C   0  0  0  0  0  0  0  0  0  0  0  0
    6.9264   -0.3532   -0.1373 C   0  0  0  0  0  0  0  0  0  0  0  0
    5.9058   -0.9260   -0.8918 C   0  0  0  0  0  0  0  0  0  0  0  0
    6.2836   -1.7104   -1.9471 O   0  0  0  0  0  0  0  0  0  0  0  0
    4.5702   -0.6881   -0.5563 C   0  0  0  0  0  0  0  0  0  0  0  0
    3.4677   -1.2706   -1.3226 C   0  0  0  0  0  0  0  0  0  0  0  0
    3.6630   -2.0008   -2.2921 O   0  0  0  0  0  0  0  0  0  0  0  0
    2.0880   -0.9504   -0.8894 C   0  0  0  0  0  0  0  0  0  0  0  0
    1.0542   -1.5169   -1.6127 O   0  0  0  0  0  0  0  0  0  0  0  0
   -0.4285    0.6988   -0.1271 C   0  0  0  0  0  0  0  0  0  0  0  0
   -1.6928    1.0673    0.3781 C   0  0  0  0  0  0  0  0  0  0  0  0
   -2.7519    1.5349   -0.6038 C   0  0  0  0  0  0  0  0  0  0  0  0
   -3.8641    0.5430   -0.8670 C   0  0  0  0  0  0  0  0  0  0  0  0
   -5.2046    0.9458   -0.7702 C   0  0  0  0  0  0  0  0  0  0  0  0
   -6.2387    0.0455   -1.0337 C   0  0  0  0  0  0  0  0  0  0  0  0
   -5.9458   -1.2648   -1.4053 C   0  0  0  0  0  0  0  0  0  0  0  0
   -4.6192   -1.6750   -1.5173 C   0  0  0  0  0  0  0  0  0  0  0  0
   -3.5839   -0.7759   -1.2550 C   0  0  0  0  0  0  0  0  0  0  0  0
   -3.2121    1.1791    3.4363 H   0  0  0  0  0  0  0  0  0  0  0  0
   -4.0162    0.6856    1.9656 H   0  0  0  0  0  0  0  0  0  0  0  0
   -3.4961    2.3419    2.1634 H   0  0  0  0  0  0  0  0  0  0  0  0
   -1.0734    0.4291    3.6166 H   0  0  0  0  0  0  0  0  0  0  0  0
    1.0812   -0.1900    2.7179 H   0  0  0  0  0  0  0  0  0  0  0  0
    5.0464    1.2951    2.0977 H   0  0  0  0  0  0  0  0  0  0  0  0
    7.3679    0.8837    1.5148 H   0  0  0  0  0  0  0  0  0  0  0  0
    7.9129   -0.5282   -0.3848 H   0  0  0  0  0  0  0  0  0  0  0  0
    7.1929   -1.8402   -2.1325 H   0  0  0  0  0  0  0  0  0  0  0  0
    1.2429   -2.0661   -2.3480 H   0  0  0  0  0  0  0  0  0  0  0  0
   -0.2501    0.7797   -1.1403 H   0  0  0  0  0  0  0  0  0  0  0  0
   -2.2700    1.7477   -1.5351 H   0  0  0  0  0  0  0  0  0  0  0  0
   -3.2145    2.3910   -0.1587 H   0  0  0  0  0  0  0  0  0  0  0  0
   -5.4284    1.9168   -0.5017 H   0  0  0  0  0  0  0  0  0  0  0  0
   -7.2211    0.3510   -0.9531 H   0  0  0  0  0  0  0  0  0  0  0  0
   -6.7105   -1.9307   -1.5973 H   0  0  0  0  0  0  0  0  0  0  0  0
   -4.4014   -2.6449   -1.7946 H   0  0  0  0  0  0  0  0  0  0  0  0
   -2.6034   -1.0842   -1.3474 H   0  0  0  0  0  0  0  0  0  0  0  0
  1  2  1  0  0  0  0
  1 28  1  0  0  0  0
  1 29  1  0  0  0  0
  1 30  1  0  0  0  0
  2  3  2  0  0  0  0
  3  4  1  0  0  0  0
  3 31  1  0  0  0  0
  4  5  2  0  0  0  0
  4 32  1  0  0  0  0
  5  6  1  0  0  0  0
  5 19  1  0  0  0  0
  6  7  1  0  0  0  0
  7  8  1  0  0  0  0
  8  9  2  0  0  0  0
  9 10  1  0  0  0  0
  9 33  1  0  0  0  0
 10 11  2  0  0  0  0
 10 34  1  0  0  0  0
 11 12  1  0  0  0  0
 11 35  1  0  0  0  0
 12 13  1  0  0  0  0
 12 14  2  0  0  0  0
 13 36  1  0  0  0  0
 14 15  1  0  0  0  0
 14  8  1  0  0  0  0
 15 16  2  0  0  0  0
 15 17  1  0  0  0  0
 17 18  1  0  0  0  0
 17  6  2  0  0  0  0
 18 37  1  0  0  0  0
 19 20  2  0  0  0  0
 19 38  1  0  0  0  0
 20 21  1  0  0  0  0
 20  2  1  0  0  0  0
 21 22  1  0  0  0  0
 21 39  1  0  0  0  0
 21 40  1  0  0  0  0
 22 23  2  0  0  0  0
 23 24  1  0  0  0  0
 23 41  1  0  0  0  0
 24 25  2  0  0  0  0
 24 42  1  0  0  0  0
 25 26  1  0  0  0  0
 25 43  1  0  0  0  0
 26 27  2  0  0  0  0
 26 44  1  0  0  0  0
 27 22  1  0  0  0  0
 27 45  1  0  0  0  0
M  END
$$$$
