
 OpenBabel08202615313D

 38 40  0  0  0  0  0  0  0  0999 V2000
   -4.4332    1.6708    0.6301 C   0  0  0  0  0  0  0  0  0  0  0  0
   -3.8907    0.4468    1.3540 C   0  0  0  0  0  0  0  0  0  0  0  0
   -2.8546   -0.2855    0.5284 C   0  0  0  0  0  0  0  0  0  0  0  0
   -1.5309    0.2009    0.5431 C   0  0  0  0  0  0  0  0  0  0  0  0
   -0.5134   -0.4015   -0.2100 C   0  0  0  0  0  0  0  0  0  0  0  0
    0.8784    0.0950   -0.1760 C   0  0  0  0  0  0  0  0  0  0  0  0
    1.8104   -0.9200    0.0059 O   0  0  0  0  0  0  0  0  0  0  0  0
    3.1422   -0.5959    0.0563 C   0  0  0  0  0  0  0  0  0  0  0  0
    4.0421   -1.6438    0.2557 C   0  0  0  0  0  0  0  0  0  0  0  0
    5.4129   -1.3826    0.3151 C   0  0  0  0  0  0  0  0  0  0  0  0
    5.8833   -0.0753    0.1749 C   0  0  0  0  0  0  0  0  0  0  0  0
    4.9831    0.9683   -0.0240 C   0  0  0  0  0  0  0  0  0  0  0  0
    5.5116    2.2233   -0.1540 O   0  0  0  0  0  0  0  0  0  0  0  0
    3.6116    0.7068   -0.0827 C   0  0  0  0  0  0  0  0  0  0  0  0
    2.6320    1.7743   -0.2902 C   0  0  0  0  0  0  0  0  0  0  0  0
    2.9676    2.9486   -0.4294 O   0  0  0  0  0  0  0  0  0  0  0  0
    1.2015    1.3926   -0.3289 C   0  0  0  0  0  0  0  0  0  0  0  0
    0.2847    2.4062   -0.5388 O   0  0  0  0  0  0  0  0  0  0  0  0
   -0.8340   -1.5251   -0.9785 C   0  0  0  0  0  0  0  0  0  0  0  0
   -2.1407   -2.0198   -1.0085 C   0  0  0  0  0  0  0  0  0  0  0  0
   -3.1683   -1.4093   -0.2664 C   0  0  0  0  0  0  0  0  0  0  0  0
   -4.5656   -1.9895   -0.3307 C   0  0  0  0  0  0  0  0  0  0  0  0
   -5.5124   -1.0686   -0.6631 F   0  0  0  0  0  0  0  0  0  0  0  0
   -4.9630   -2.5282    0.8560 F   0  0  0  0  0  0  0  0  0  0  0  0
   -4.6964   -2.9914   -1.2477 F   0  0  0  0  0  0  0  0  0  0  0  0
   -5.1599    2.1570    1.2469 H   0  0  0  0  0  0  0  0  0  0  0  0
   -4.8904    1.3682   -0.2888 H   0  0  0  0  0  0  0  0  0  0  0  0
   -3.6307    2.3477    0.4233 H   0  0  0  0  0  0  0  0  0  0  0  0
   -4.7016   -0.2198    1.5615 H   0  0  0  0  0  0  0  0  0  0  0  0
   -3.4214    0.7771    2.2571 H   0  0  0  0  0  0  0  0  0  0  0  0
   -1.3050    1.0231    1.1244 H   0  0  0  0  0  0  0  0  0  0  0  0
    3.6952   -2.6102    0.3591 H   0  0  0  0  0  0  0  0  0  0  0  0
    6.0790   -2.1568    0.4628 H   0  0  0  0  0  0  0  0  0  0  0  0
    6.8963    0.1171    0.2186 H   0  0  0  0  0  0  0  0  0  0  0  0
    6.4391    2.3482   -0.1074 H   0  0  0  0  0  0  0  0  0  0  0  0
    0.5784    3.2905   -0.6373 H   0  0  0  0  0  0  0  0  0  0  0  0
   -0.0979   -1.9939   -1.5293 H   0  0  0  0  0  0  0  0  0  0  0  0
   -2.3558   -2.8480   -1.5855 H   0  0  0  0  0  0  0  0  0  0  0  0
  1  2  1  0  0  0  0
  1 26  1  0  0  0  0
  1 27  1  0  0  0  0
  1 28  1  0  0  0  0
  2  3  1  0  0  0  0
  2 29  1  0  0  0  0
  2 30  1  0  0  0  0
  3  4  2  0  0  0  0
  4  5  1  0  0  0  0
  4 31  1  0  0  0  0
  5  6  1  0  0  0  0
  5 19  2  0  0  0  0
  6  7  1  0  0  0  0
  7  8  1  0  0  0  0
  8  9  2  0  0  0  0
  9 10  1  0  0  0  0
  9 32  1  0  0  0  0
 10 11  2  0  0  0  0
 10 33  1  0  0  0  0
 11 12  1  0  0  0  0
 11 34  1  0  0  0  0
 12 13  1  0  0  0  0
 12 14  2  0  0  0  0
 13 35  1  0  0  0  0
 14 15  1  0  0  0  0
 14  8  1  0  0  0  0
 15 16  2  0  0  0  0
 15 17  1  0  0  0  0
 17 18  1  0  0  0  0
 17  6  2  0  0  0  0
 18 36  1  0  0  0  0
 19 20  1  0  0  0  0
 19 37  1  0  0  0  0
 20 21  2  0  0  0  0
 20 38  1  0  0  0  0
 21 22  1  0  0  0  0
 21  3  1  0  0  0  0
 22 23  1  0  0  0  0
 22 24  1  0  0  0  0
 22 25  1  0  0  0  0
M  END
$$$$
