
 OpenBabel08202620133D

 31 33  0  0  0  0  0  0  0  0999 V2000
    1.7899   -1.9710    2.1808 O   0  0  0  0  0  0  0  0  0  0  0  0
    1.3543   -1.2499    1.2857 C   0  0  0  0  0  0  0  0  0  0  0  0
   -0.0854   -0.9072    1.2289 C   0  0  0  0  0  0  0  0  0  0  0  0
   -0.8938   -1.4207    2.2262 O   0  0  0  0  0  0  0  0  0  0  0  0
   -0.5176   -0.1118    0.2326 C   0  0  0  0  0  0  0  0  0  0  0  0
   -1.9276    0.3082    0.0828 C   0  0  0  0  0  0  0  0  0  0  0  0
   -2.9857   -0.6108    0.1661 C   0  0  0  0  0  0  0  0  0  0  0  0
   -4.3113   -0.1974   -0.0017 C   0  0  0  0  0  0  0  0  0  0  0  0
   -4.5822    1.1407   -0.2625 C   0  0  0  0  0  0  0  0  0  0  0  0
   -5.8584    1.5879   -0.4329 O   0  0  0  0  0  0  0  0  0  0  0  0
   -3.5527    2.0672   -0.3603 C   0  0  0  0  0  0  0  0  0  0  0  0
   -2.2294    1.6520   -0.1914 C   0  0  0  0  0  0  0  0  0  0  0  0
    0.3115    0.4205   -0.7485 O   0  0  0  0  0  0  0  0  0  0  0  0
    1.6481    0.1145   -0.7266 C   0  0  0  0  0  0  0  0  0  0  0  0
    2.4410    0.6600   -1.7356 C   0  0  0  0  0  0  0  0  0  0  0  0
    3.8055    0.3837   -1.7610 C   0  0  0  0  0  0  0  0  0  0  0  0
    4.5441    0.9372   -2.7645 O   0  0  0  0  0  0  0  0  0  0  0  0
    4.3922   -0.4290   -0.7945 C   0  0  0  0  0  0  0  0  0  0  0  0
    3.5951   -0.9708    0.2110 C   0  0  0  0  0  0  0  0  0  0  0  0
    4.2226   -1.7615    1.1354 O   0  0  0  0  0  0  0  0  0  0  0  0
    2.2233   -0.6993    0.2446 C   0  0  0  0  0  0  0  0  0  0  0  0
   -0.5264   -1.9694    2.8910 H   0  0  0  0  0  0  0  0  0  0  0  0
   -2.7826   -1.6051    0.3537 H   0  0  0  0  0  0  0  0  0  0  0  0
   -5.0819   -0.8803    0.0676 H   0  0  0  0  0  0  0  0  0  0  0  0
   -6.5766    0.9890   -0.3733 H   0  0  0  0  0  0  0  0  0  0  0  0
   -3.7640    3.0580   -0.5569 H   0  0  0  0  0  0  0  0  0  0  0  0
   -1.4649    2.3408   -0.2690 H   0  0  0  0  0  0  0  0  0  0  0  0
    2.0195    1.2642   -2.4584 H   0  0  0  0  0  0  0  0  0  0  0  0
    4.1304    1.4814   -3.4054 H   0  0  0  0  0  0  0  0  0  0  0  0
    5.4046   -0.6273   -0.8228 H   0  0  0  0  0  0  0  0  0  0  0  0
    5.1448   -1.9150    1.0719 H   0  0  0  0  0  0  0  0  0  0  0  0
  1  2  2  0  0  0  0
  2  3  1  0  0  0  0
  3  4  1  0  0  0  0
  3  5  2  0  0  0  0
  4 22  1  0  0  0  0
  5  6  1  0  0  0  0
  5 13  1  0  0  0  0
  6  7  2  0  0  0  0
  7  8  1  0  0  0  0
  7 23  1  0  0  0  0
  8  9  2  0  0  0  0
  8 24  1  0  0  0  0
  9 10  1  0  0  0  0
  9 11  1  0  0  0  0
 10 25  1  0  0  0  0
 11 12  2  0  0  0  0
 11 26  1  0  0  0  0
 12  6  1  0  0  0  0
 12 27  1  0  0  0  0
 13 14  1  0  0  0  0
 14 15  2  0  0  0  0
 15 16  1  0  0  0  0
 15 28  1  0  0  0  0
 16 17  1  0  0  0  0
 16 18  2  0  0  0  0
 17 29  1  0  0  0  0
 18 19  1  0  0  0  0
 18 30  1  0  0  0  0
 19 20  1  0  0  0  0
 19 21  2  0  0  0  0
 20 31  1  0  0  0  0
 21  2  1  0  0  0  0
 21 14  1  0  0  0  0
M  END
$$$$
