
 OpenBabel08202620133D

 24 24  0  0  0  0  0  0  0  0999 V2000
    2.9067   -1.3325    1.1738 N   0  3  0  0  0  0  0  0  0  0  0  0
    3.2291   -0.3276    0.1530 C   0  0  0  0  0  0  0  0  0  0  0  0
    2.3830   -0.5112   -1.1157 C   0  0  0  0  0  0  0  0  0  0  0  0
    0.9598   -0.4715   -0.8423 N   0  0  0  0  0  0  0  0  0  0  0  0
    0.2723    0.7032   -0.6336 C   0  0  0  0  0  0  0  0  0  0  0  0
    0.7713    1.8179   -0.7340 O   0  0  0  0  0  0  0  0  0  0  0  0
   -1.1644    0.5183   -0.2479 C   0  0  0  0  0  0  0  0  0  0  0  0
   -1.9822    1.6290   -0.0677 C   0  0  0  0  0  0  0  0  0  0  0  0
   -3.3122    1.4195    0.2957 C   0  0  0  0  0  0  0  0  0  0  0  0
   -3.7730    0.1179    0.4656 C   0  0  0  0  0  0  0  0  0  0  0  0
   -5.4026   -0.1798    0.9120 Cl  0  0  0  0  0  0  0  0  0  0  0  0
   -2.8859   -0.9319    0.2671 C   0  0  0  0  0  0  0  0  0  0  0  0
   -1.5866   -0.7694   -0.0849 N   0  0  0  0  0  0  0  0  0  0  0  0
    3.4871   -1.1780    1.9982 H   0  0  0  0  0  0  0  0  0  0  0  0
    3.0862   -2.2650    0.8015 H   0  0  0  0  0  0  0  0  0  0  0  0
    1.9229   -1.2526    1.4308 H   0  0  0  0  0  0  0  0  0  0  0  0
    4.2638   -0.4157   -0.1050 H   0  0  0  0  0  0  0  0  0  0  0  0
    3.0147    0.6390    0.5586 H   0  0  0  0  0  0  0  0  0  0  0  0
    2.6223   -1.4575   -1.5542 H   0  0  0  0  0  0  0  0  0  0  0  0
    2.6102    0.2973   -1.7788 H   0  0  0  0  0  0  0  0  0  0  0  0
    0.4635   -1.3209   -0.8042 H   0  0  0  0  0  0  0  0  0  0  0  0
   -1.6140    2.5840   -0.1996 H   0  0  0  0  0  0  0  0  0  0  0  0
   -3.9472    2.2207    0.4369 H   0  0  0  0  0  0  0  0  0  0  0  0
   -3.2368   -1.8939    0.3952 H   0  0  0  0  0  0  0  0  0  0  0  0
  1  2  1  0  0  0  0
  1 14  1  0  0  0  0
  1 15  1  0  0  0  0
  1 16  1  0  0  0  0
  2  3  1  0  0  0  0
  2 17  1  0  0  0  0
  2 18  1  0  0  0  0
  3  4  1  0  0  0  0
  3 19  1  0  0  0  0
  3 20  1  0  0  0  0
  4  5  1  0  0  0  0
  4 21  1  0  0  0  0
  5  6  2  0  0  0  0
  5  7  1  0  0  0  0
  7  8  2  0  0  0  0
  8  9  1  0  0  0  0
  8 22  1  0  0  0  0
  9 10  2  0  0  0  0
  9 23  1  0  0  0  0
 10 11  1  0  0  0  0
 10 12  1  0  0  0  0
 12 13  2  0  0  0  0
 12 24  1  0  0  0  0
 13  7  1  0  0  0  0
M  CHG  1   1   1
M  END
$$$$
