
 OpenBabel08202615303D

 45 48  0  0  0  0  0  0  0  0999 V2000
    5.9492   -0.2534   -1.7955 C   0  0  0  0  0  0  0  0  0  0  0  0
    5.3847    0.2731   -0.4786 C   0  0  0  0  0  0  0  0  0  0  0  0
    5.3358    1.8000   -0.4841 C   0  0  0  0  0  0  0  0  0  0  0  0
    6.2632   -0.1437    0.5656 O   0  0  0  0  0  0  0  0  0  0  0  0
    4.0468   -0.2875   -0.2290 C   0  0  0  0  0  0  0  0  0  0  0  0
    2.9548   -0.7430   -0.0203 C   0  0  0  0  0  0  0  0  0  0  0  0
    1.6620   -1.2833    0.2282 C   0  0  0  0  0  0  0  0  0  0  0  0
    1.5335   -2.7160    0.4722 C   0  0  0  0  0  0  0  0  0  0  0  0
    0.3573   -3.3141    0.7292 C   0  0  0  0  0  0  0  0  0  0  0  0
   -0.8711   -2.4932    0.7645 C   0  0  0  0  0  0  0  0  0  0  0  0
   -0.7074   -1.0571    0.4955 C   0  0  0  0  0  0  0  0  0  0  0  0
    0.5801   -0.4836    0.2412 C   0  0  0  0  0  0  0  0  0  0  0  0
   -1.9562   -0.5959    0.5943 C   0  0  0  0  0  0  0  0  0  0  0  0
   -2.3751    0.8022    0.5346 C   0  0  0  0  0  0  0  0  0  0  0  0
   -1.5918    1.6456    1.2446 N   0  0  0  0  0  0  0  0  0  0  0  0
   -1.9194    2.9364    1.2525 C   0  0  0  0  0  0  0  0  0  0  0  0
   -1.1299    3.7918    1.9913 N   0  0  0  0  0  0  0  0  0  0  0  0
   -2.9784    3.4519    0.6344 N   0  0  0  0  0  0  0  0  0  0  0  0
   -3.7328    2.5900   -0.0701 C   0  0  0  0  0  0  0  0  0  0  0  0
   -3.4903    1.2318   -0.1610 C   0  0  0  0  0  0  0  0  0  0  0  0
   -4.3497    0.3690   -1.0339 C   0  0  0  0  0  0  0  0  0  0  0  0
   -4.9698   -0.8341   -0.3290 C   0  0  0  0  0  0  0  0  0  0  0  0
   -3.9880   -1.9847   -0.1335 C   0  0  0  0  0  0  0  0  0  0  0  0
   -2.9127   -1.7063    0.9165 C   0  0  1  0  0  0  0  0  0  0  0  0
   -2.0661   -2.9328    1.0153 N   0  0  0  0  0  0  0  0  0  0  0  0
    6.9205    0.1644   -1.9596 H   0  0  0  0  0  0  0  0  0  0  0  0
    5.3002    0.0263   -2.5989 H   0  0  0  0  0  0  0  0  0  0  0  0
    6.0225   -1.3200   -1.7511 H   0  0  0  0  0  0  0  0  0  0  0  0
    6.3163    2.1876   -0.6668 H   0  0  0  0  0  0  0  0  0  0  0  0
    4.9854    2.1490    0.4647 H   0  0  0  0  0  0  0  0  0  0  0  0
    4.6715    2.1328   -1.2541 H   0  0  0  0  0  0  0  0  0  0  0  0
    7.1480    0.2216    0.4088 H   0  0  0  0  0  0  0  0  0  0  0  0
    2.3856   -3.2976    0.4463 H   0  0  0  0  0  0  0  0  0  0  0  0
    0.3128   -4.3310    0.8993 H   0  0  0  0  0  0  0  0  0  0  0  0
    0.6767    0.5295    0.0702 H   0  0  0  0  0  0  0  0  0  0  0  0
   -0.3376    3.4467    2.4628 H   0  0  0  0  0  0  0  0  0  0  0  0
   -1.3585    4.7478    2.0473 H   0  0  0  0  0  0  0  0  0  0  0  0
   -4.5482    2.9680   -0.5774 H   0  0  0  0  0  0  0  0  0  0  0  0
   -3.7480    0.0082   -1.8418 H   0  0  0  0  0  0  0  0  0  0  0  0
   -5.1644    0.9828   -1.3571 H   0  0  0  0  0  0  0  0  0  0  0  0
   -5.7933   -1.1850   -0.9152 H   0  0  0  0  0  0  0  0  0  0  0  0
   -5.2790   -0.5100    0.6427 H   0  0  0  0  0  0  0  0  0  0  0  0
   -3.5047   -2.1783   -1.0683 H   0  0  0  0  0  0  0  0  0  0  0  0
   -4.5550   -2.8223    0.2155 H   0  0  0  0  0  0  0  0  0  0  0  0
   -3.4437   -1.4271    1.8025 H   0  0  0  0  0  0  0  0  0  0  0  0
  1  2  1  0  0  0  0
  1 26  1  0  0  0  0
  1 27  1  0  0  0  0
  1 28  1  0  0  0  0
  2  3  1  0  0  0  0
  2  4  1  0  0  0  0
  2  5  1  0  0  0  0
  3 29  1  0  0  0  0
  3 30  1  0  0  0  0
  3 31  1  0  0  0  0
  4 32  1  0  0  0  0
  5  6  3  0  0  0  0
  6  7  1  0  0  0  0
  7  8  1  0  0  0  0
  8  9  2  0  0  0  0
  8 33  1  0  0  0  0
  9 10  1  0  0  0  0
  9 34  1  0  0  0  0
 10 11  1  0  0  0  0
 11 12  1  0  0  0  0
 11 13  2  0  0  0  0
 12  7  2  0  0  0  0
 12 35  1  0  0  0  0
 13 14  1  0  0  0  0
 14 15  2  0  0  0  0
 15 16  1  0  0  0  0
 16 17  1  0  0  0  0
 16 18  2  0  0  0  0
 17 36  1  0  0  0  0
 17 37  1  0  0  0  0
 18 19  1  0  0  0  0
 19 20  2  0  0  0  0
 19 38  1  0  0  0  0
 20 21  1  0  0  0  0
 20 14  1  0  0  0  0
 21 22  1  0  0  0  0
 21 39  1  0  0  0  0
 21 40  1  0  0  0  0
 22 23  1  0  0  0  0
 22 41  1  0  0  0  0
 22 42  1  0  0  0  0
 23 24  1  0  0  0  0
 23 43  1  0  0  0  0
 23 44  1  0  0  0  0
 24 25  1  0  0  0  0
 24 13  1  0  0  0  0
 24 45  1  1  0  0  0
 25 10  2  0  0  0  0
M  END
$$$$
