
 OpenBabel08202620133D

 27 28  0  0  0  0  0  0  0  0999 V2000
    4.8247    0.0761    1.5622 C   0  0  0  0  0  0  0  0  0  0  0  0
    3.8939   -0.3589    0.9397 C   0  0  0  0  0  0  0  0  0  0  0  0
    2.7555   -0.8894    0.1781 C   0  0  0  0  0  0  0  0  0  0  0  0
    1.5408   -0.1909    0.5750 N   0  3  0  0  0  0  0  0  0  0  0  0
    0.3623   -0.6824   -0.1285 C   0  0  2  0  0  0  0  0  0  0  0  0
    0.3356   -0.3398   -1.6360 C   0  0  0  0  0  0  0  0  0  0  0  0
   -1.1450   -0.2799   -2.0378 C   0  0  0  0  0  0  0  0  0  0  0  0
   -1.7647    0.2104   -0.7672 C   0  0  0  0  0  0  0  0  0  0  0  0
   -3.0189    0.7709   -0.5925 C   0  0  0  0  0  0  0  0  0  0  0  0
   -3.4112    1.1263    0.6998 C   0  0  0  0  0  0  0  0  0  0  0  0
   -2.5583    0.9066    1.7926 C   0  0  0  0  0  0  0  0  0  0  0  0
   -1.3007    0.3282    1.6080 C   0  0  0  0  0  0  0  0  0  0  0  0
   -0.9093   -0.0092    0.3210 C   0  0  0  0  0  0  0  0  0  0  0  0
    5.5949    0.4360    2.0773 H   0  0  0  0  0  0  0  0  0  0  0  0
    2.6479   -1.9349    0.3786 H   0  0  0  0  0  0  0  0  0  0  0  0
    2.9262   -0.7436   -0.8681 H   0  0  0  0  0  0  0  0  0  0  0  0
    1.6529    0.8024    0.3721 H   0  0  0  0  0  0  0  0  0  0  0  0
    1.3991   -0.3550    1.5717 H   0  0  0  0  0  0  0  0  0  0  0  0
    0.4171   -1.7316    0.0742 H   0  0  0  0  0  0  0  0  0  0  0  0
    0.8415   -1.0975   -2.1972 H   0  0  0  0  0  0  0  0  0  0  0  0
    0.8300    0.5885   -1.8328 H   0  0  0  0  0  0  0  0  0  0  0  0
   -1.5178   -1.2452   -2.3101 H   0  0  0  0  0  0  0  0  0  0  0  0
   -1.3463    0.3321   -2.8921 H   0  0  0  0  0  0  0  0  0  0  0  0
   -3.6476    0.9221   -1.3968 H   0  0  0  0  0  0  0  0  0  0  0  0
   -4.3375    1.5548    0.8528 H   0  0  0  0  0  0  0  0  0  0  0  0
   -2.8633    1.1750    2.7413 H   0  0  0  0  0  0  0  0  0  0  0  0
   -0.6764    0.1557    2.4115 H   0  0  0  0  0  0  0  0  0  0  0  0
  1  2  3  0  0  0  0
  1 14  1  0  0  0  0
  2  3  1  0  0  0  0
  3  4  1  0  0  0  0
  3 15  1  0  0  0  0
  3 16  1  0  0  0  0
  4  5  1  0  0  0  0
  4 17  1  0  0  0  0
  4 18  1  0  0  0  0
  5  6  1  0  0  0  0
  5 19  1  1  0  0  0
  6  7  1  0  0  0  0
  6 20  1  0  0  0  0
  6 21  1  0  0  0  0
  7  8  1  0  0  0  0
  7 22  1  0  0  0  0
  7 23  1  0  0  0  0
  8  9  2  0  0  0  0
  9 10  1  0  0  0  0
  9 24  1  0  0  0  0
 10 11  2  0  0  0  0
 10 25  1  0  0  0  0
 11 12  1  0  0  0  0
 11 26  1  0  0  0  0
 12 13  2  0  0  0  0
 12 27  1  0  0  0  0
 13  5  1  0  0  0  0
 13  8  1  0  0  0  0
M  CHG  1   4   1
M  END
$$$$
