
 OpenBabel08202619083D

 32 32  0  0  0  0  0  0  0  0999 V2000
    4.9797    1.9461   -0.5435 C   0  0  0  0  0  0  0  0  0  0  0  0
    4.0352    1.4406    0.0003 C   0  0  0  0  0  0  0  0  0  0  0  0
    2.8769    0.8255    0.6722 C   0  0  0  0  0  0  0  0  0  0  0  0
    1.9489    0.2156   -0.2946 N   0  3  1  0  0  0  0  0  0  0  0  0
    2.5258   -0.9922   -0.8902 C   0  0  0  0  0  0  0  0  0  0  0  0
    0.5981    0.0126    0.2910 C   0  0  2  0  0  0  0  0  0  0  0  0
    0.5274   -1.1111    1.3382 C   0  0  0  0  0  0  0  0  0  0  0  0
   -0.4539   -0.1963   -0.8327 C   0  0  0  0  0  0  0  0  0  0  0  0
   -1.8846   -0.0343   -0.3669 C   0  0  0  0  0  0  0  0  0  0  0  0
   -2.7058   -1.1542   -0.1781 C   0  0  0  0  0  0  0  0  0  0  0  0
   -4.0220   -1.0002    0.2604 C   0  0  0  0  0  0  0  0  0  0  0  0
   -4.5300    0.2728    0.5126 C   0  0  0  0  0  0  0  0  0  0  0  0
   -3.7231    1.3934    0.3254 C   0  0  0  0  0  0  0  0  0  0  0  0
   -2.4068    1.2415   -0.1126 C   0  0  0  0  0  0  0  0  0  0  0  0
    5.7612    2.3643   -0.9934 H   0  0  0  0  0  0  0  0  0  0  0  0
    2.3561    1.5790    1.2252 H   0  0  0  0  0  0  0  0  0  0  0  0
    3.2374    0.0549    1.3211 H   0  0  0  0  0  0  0  0  0  0  0  0
    1.8111    0.8696   -1.0651 H   0  0  0  0  0  0  0  0  0  0  0  0
    2.6944   -1.7214   -0.1255 H   0  0  0  0  0  0  0  0  0  0  0  0
    3.4548   -0.7485   -1.3618 H   0  0  0  0  0  0  0  0  0  0  0  0
    1.8495   -1.3888   -1.6183 H   0  0  0  0  0  0  0  0  0  0  0  0
    0.3696    0.9094    0.8280 H   0  0  0  0  0  0  0  0  0  0  0  0
    0.7467   -2.0484    0.8710 H   0  0  0  0  0  0  0  0  0  0  0  0
   -0.4554   -1.1442    1.7600 H   0  0  0  0  0  0  0  0  0  0  0  0
    1.2417   -0.9227    2.1123 H   0  0  0  0  0  0  0  0  0  0  0  0
   -0.3367   -1.1848   -1.2252 H   0  0  0  0  0  0  0  0  0  0  0  0
   -0.2781    0.5599   -1.5690 H   0  0  0  0  0  0  0  0  0  0  0  0
   -2.3349   -2.0990   -0.3645 H   0  0  0  0  0  0  0  0  0  0  0  0
   -4.6197   -1.8301    0.3980 H   0  0  0  0  0  0  0  0  0  0  0  0
   -5.5029    0.3855    0.8377 H   0  0  0  0  0  0  0  0  0  0  0  0
   -4.0992    2.3364    0.5108 H   0  0  0  0  0  0  0  0  0  0  0  0
   -1.8135    2.0746   -0.2503 H   0  0  0  0  0  0  0  0  0  0  0  0
  1  2  3  0  0  0  0
  1 15  1  0  0  0  0
  2  3  1  0  0  0  0
  3  4  1  0  0  0  0
  3 16  1  0  0  0  0
  3 17  1  0  0  0  0
  4  5  1  0  0  0  0
  4  6  1  0  0  0  0
  4 18  1  6  0  0  0
  5 19  1  0  0  0  0
  5 20  1  0  0  0  0
  5 21  1  0  0  0  0
  6  7  1  0  0  0  0
  6  8  1  0  0  0  0
  6 22  1  1  0  0  0
  7 23  1  0  0  0  0
  7 24  1  0  0  0  0
  7 25  1  0  0  0  0
  8  9  1  0  0  0  0
  8 26  1  0  0  0  0
  8 27  1  0  0  0  0
  9 10  2  0  0  0  0
 10 11  1  0  0  0  0
 10 28  1  0  0  0  0
 11 12  2  0  0  0  0
 11 29  1  0  0  0  0
 12 13  1  0  0  0  0
 12 30  1  0  0  0  0
 13 14  2  0  0  0  0
 13 31  1  0  0  0  0
 14  9  1  0  0  0  0
 14 32  1  0  0  0  0
M  CHG  1   4   1
M  END
$$$$
