9IV_from_7Q8Y
     RDKit          3D

 24 27  0  0  0  0  0  0  0  0999 V2000
   22.7940  -27.0010   43.4930 N   0  0  0  0  0  0  0  0  0  0  0  0
   18.7540  -22.4440   36.2060 C   0  0  0  0  0  0  0  0  0  0  0  0
   25.2900  -30.0450   44.4870 N   0  0  0  0  0  0  0  0  0  0  0  0
   19.1930  -22.6660   38.5530 C   0  0  0  0  0  0  0  0  0  0  0  0
   18.5420  -23.8940   38.5540 C   0  0  0  0  0  0  0  0  0  0  0  0
   19.3430  -25.4540   40.1750 C   0  0  0  0  0  0  0  0  0  0  0  0
   17.2140  -25.9360   37.3590 Cl  0  0  0  0  0  0  0  0  0  0  0  0
   18.0180  -24.3960   37.3660 C   0  0  0  0  0  0  0  0  0  0  0  0
   19.3020  -21.9540   37.3730 C   0  0  0  0  0  0  0  0  0  0  0  0
   18.1190  -23.6730   36.1930 C   0  0  0  0  0  0  0  0  0  0  0  0
   18.3500  -24.5910   39.7310 O   0  0  0  0  0  0  0  0  0  0  0  0
   20.3410  -25.9070   39.3230 C   0  0  0  0  0  0  0  0  0  0  0  0
   21.2680  -26.8270   39.7790 C   0  0  0  0  0  0  0  0  0  0  0  0
   21.2250  -27.2740   41.0940 C   0  0  0  0  0  0  0  0  0  0  0  0
   20.2320  -26.8000   41.9420 C   0  0  0  0  0  0  0  0  0  0  0  0
   19.2810  -25.9080   41.4770 C   0  0  0  0  0  0  0  0  0  0  0  0
   22.1940  -28.1730   41.5660 N   0  0  0  0  0  0  0  0  0  0  0  0
   22.9310  -28.0910   42.7050 C   0  0  0  0  0  0  0  0  0  0  0  0
   23.7990  -29.1590   43.0660 C   0  0  0  0  0  0  0  0  0  0  0  0
   24.3000  -30.3690   42.4980 C   0  0  0  0  0  0  0  0  0  0  0  0
   25.1970  -30.8710   43.3880 C   0  0  0  0  0  0  0  0  0  0  0  0
   24.4570  -28.9810   44.2910 C   0  0  0  0  0  0  0  0  0  0  0  0
   24.3250  -27.9130   45.1110 N   0  0  0  0  0  0  0  0  0  0  0  0
   23.4930  -26.9870   44.6340 C   0  0  0  0  0  0  0  0  0  0  0  0
  5  4  2  0
  8  7  1  0
  8  5  1  0
  9  2  2  0
  9  4  1  0
 10  8  2  0
 10  2  1  0
 11  6  1  0
 11  5  1  0
 12  6  2  0
 13 12  1  0
 14 13  2  0
 15 14  1  0
 16 15  2  0
 16  6  1  0
 17 14  1  0
 18 17  1  0
 18  1  2  0
 19 18  1  0
 20 19  1  0
 21 20  2  0
 21  3  1  0
 22 19  2  0
 22  3  1  0
 23 22  1  0
 24 23  2  0
 24  1  1  0
M  END
$$$$
