
     RDKit          3D

 28 30  0  0  0  0  0  0  0  0999 V2000
    5.0505   -0.1788    0.5380 C   0  0  0  0  0  0  0  0  0  0  0  0
    3.8203    0.1429    1.1744 O   0  0  0  0  0  0  0  0  0  0  0  0
    2.6789   -0.0077    0.4315 C   0  0  0  0  0  0  0  0  0  0  0  0
    2.6191   -0.4476   -0.8901 C   0  0  0  0  0  0  0  0  0  0  0  0
    1.3876   -0.5637   -1.5540 C   0  0  0  0  0  0  0  0  0  0  0  0
    0.1958   -0.2323   -0.8787 C   0  0  0  0  0  0  0  0  0  0  0  0
    0.2834    0.2043    0.4404 C   0  0  0  0  0  0  0  0  0  0  0  0
    1.5036    0.3256    1.1167 C   0  0  0  0  0  0  0  0  0  0  0  0
   -0.9976    0.4598    0.8673 N   0  0  0  0  0  0  0  0  0  0  0  0
   -1.9119    0.2039   -0.1293 C   0  0  0  0  0  0  0  0  0  0  0  0
   -3.3063    0.3236   -0.1351 C   0  0  0  0  0  0  0  0  0  0  0  0
   -4.1178    0.7875    1.0323 C   0  0  0  0  0  0  0  0  0  0  0  0
   -3.9649   -0.0043   -1.2795 N   0  0  0  0  0  0  0  0  0  0  0  0
   -3.2696   -0.4279   -2.3570 C   0  0  0  0  0  0  0  0  0  0  0  0
   -1.8925   -0.5642   -2.4050 C   0  0  0  0  0  0  0  0  0  0  0  0
   -1.1892   -0.2328   -1.2387 C   0  0  0  0  0  0  0  0  0  0  0  0
    5.8550   -0.0060    1.2594 H   0  0  0  0  0  0  0  0  0  0  0  0
    5.2312    0.4720   -0.3239 H   0  0  0  0  0  0  0  0  0  0  0  0
    5.0823   -1.2350    0.2510 H   0  0  0  0  0  0  0  0  0  0  0  0
    3.5137   -0.7122   -1.4440 H   0  0  0  0  0  0  0  0  0  0  0  0
    1.3570   -0.9078   -2.5837 H   0  0  0  0  0  0  0  0  0  0  0  0
    1.5476    0.6683    2.1458 H   0  0  0  0  0  0  0  0  0  0  0  0
   -1.2340    0.7914    1.7909 H   0  0  0  0  0  0  0  0  0  0  0  0
   -3.8206    1.8010    1.3184 H   0  0  0  0  0  0  0  0  0  0  0  0
   -5.1846    0.7983    0.7879 H   0  0  0  0  0  0  0  0  0  0  0  0
   -3.9674    0.1186    1.8850 H   0  0  0  0  0  0  0  0  0  0  0  0
   -3.8773   -0.6674   -3.2256 H   0  0  0  0  0  0  0  0  0  0  0  0
   -1.3921   -0.9095   -3.3007 H   0  0  0  0  0  0  0  0  0  0  0  0
  1  2  1  0
  2  3  1  0
  3  4  2  0
  4  5  1  0
  5  6  2  0
  6  7  1  0
  7  8  2  0
  7  9  1  0
  9 10  1  0
 10 11  2  0
 11 12  1  0
 11 13  1  0
 13 14  2  0
 14 15  1  0
 15 16  2  0
  8  3  1  0
 16 10  1  0
 16  6  1  0
  1 17  1  0
  1 18  1  0
  1 19  1  0
  4 20  1  0
  5 21  1  0
  8 22  1  0
  9 23  1  0
 12 24  1  0
 12 25  1  0
 12 26  1  0
 14 27  1  0
 15 28  1  0
M  END
$$$$
