cand_033_out
     RDKit          3D

 44 46  0  0  0  0  0  0  0  0999 V2000
  178.8690   12.2520   45.4790 C   0  0  0  0  0  0  0  0  0  0  0  0
  179.0280   13.7140   45.0940 C   0  0  0  0  0  0  0  0  0  0  0  0
  180.5030   14.1070   44.9920 C   0  0  0  0  0  0  0  0  0  0  0  0
  180.6690   15.5650   44.6220 C   0  0  0  0  0  0  0  0  0  0  0  0
  180.0730   16.5300   45.4600 C   0  0  0  0  0  0  0  0  0  0  0  0
  180.1560   17.9020   45.1860 C   0  0  0  0  0  0  0  0  0  0  0  0
  179.5530   18.9130   46.0800 C   0  0  0  0  0  0  0  0  0  0  0  0
  178.1670   18.8190   46.1440 O   0  0  0  0  0  0  0  0  0  0  0  0
  177.4780   19.7000   46.9370 C   0  0  0  0  0  0  0  0  0  0  0  0
  176.0880   19.5790   46.9600 C   0  0  0  0  0  0  0  0  0  0  0  0
  175.3260   20.4440   47.7490 C   0  0  0  0  0  0  0  0  0  0  0  0
  175.9540   21.4280   48.5150 C   0  0  0  0  0  0  0  0  0  0  0  0
  177.3410   21.5460   48.4910 C   0  0  0  0  0  0  0  0  0  0  0  0
  177.8910   22.5310   49.2650 O   0  0  0  0  0  0  0  0  0  0  0  0
  178.1030   20.6810   47.7010 C   0  0  0  0  0  0  0  0  0  0  0  0
  179.5630   20.7710   47.6470 C   0  0  0  0  0  0  0  0  0  0  0  0
  180.1880   21.6060   48.2970 O   0  0  0  0  0  0  0  0  0  0  0  0
  180.2760   19.8120   46.7720 C   0  0  0  0  0  0  0  0  0  0  0  0
  181.6560   19.8980   46.7380 O   0  0  0  0  0  0  0  0  0  0  0  0
  180.8650   18.3080   44.0520 C   0  0  0  0  0  0  0  0  0  0  0  0
  181.4570   17.3670   43.2060 C   0  0  0  0  0  0  0  0  0  0  0  0
  181.3600   15.9900   43.4710 C   0  0  0  0  0  0  0  0  0  0  0  0
  182.0350   15.0340   42.5130 C   0  0  0  0  0  0  0  0  0  0  0  0
  181.1700   14.7460   41.2940 C   0  0  0  0  0  0  0  0  0  0  0  0
  178.8591   12.1605   46.5751 H   0  0  0  0  0  0  0  0  0  0  0  0
  177.9236   11.8659   45.0702 H   0  0  0  0  0  0  0  0  0  0  0  0
  179.7093   11.6717   45.0702 H   0  0  0  0  0  0  0  0  0  0  0  0
  178.5446   13.8823   44.1204 H   0  0  0  0  0  0  0  0  0  0  0  0
  178.5586   14.3306   45.8746 H   0  0  0  0  0  0  0  0  0  0  0  0
  180.9876   13.9282   45.9632 H   0  0  0  0  0  0  0  0  0  0  0  0
  180.9666   13.4977   44.2022 H   0  0  0  0  0  0  0  0  0  0  0  0
  179.5271   16.1962   46.3547 H   0  0  0  0  0  0  0  0  0  0  0  0
  175.5928   18.8033   46.3575 H   0  0  0  0  0  0  0  0  0  0  0  0
  174.2302   20.3498   47.7668 H   0  0  0  0  0  0  0  0  0  0  0  0
  175.3539   22.1089   49.1364 H   0  0  0  0  0  0  0  0  0  0  0  0
  178.8220   22.5860   49.3630 H   0  0  0  0  0  0  0  0  0  0  0  0
  182.1030   20.4820   47.3190 H   0  0  0  0  0  0  0  0  0  0  0  0
  180.9579   19.3799   43.8232 H   0  0  0  0  0  0  0  0  0  0  0  0
  182.0082   17.7093   42.3178 H   0  0  0  0  0  0  0  0  0  0  0  0
  182.9845   15.4772   42.1785 H   0  0  0  0  0  0  0  0  0  0  0  0
  182.2049   14.0847   43.0422 H   0  0  0  0  0  0  0  0  0  0  0  0
  180.1737   14.4143   41.6215 H   0  0  0  0  0  0  0  0  0  0  0  0
  181.0719   15.6600   40.6898 H   0  0  0  0  0  0  0  0  0  0  0  0
  181.6393   13.9557   40.6898 H   0  0  0  0  0  0  0  0  0  0  0  0
  1  2  1  0
  2  3  1  0
  3  4  1  0
  4  5  2  0
  5  6  1  0
  6  7  1  0
  7  8  1  0
  8  9  1  0
  9 10  2  0
 10 11  1  0
 11 12  2  0
 12 13  1  0
 13 14  1  0
 13 15  2  0
 15 16  1  0
 16 17  2  0
 16 18  1  0
 18 19  1  0
  6 20  2  0
 20 21  1  0
 21 22  2  0
 22 23  1  0
 23 24  1  0
 22  4  1  0
 18  7  2  0
 15  9  1  0
  1 25  1  0
  1 26  1  0
  1 27  1  0
  2 28  1  0
  2 29  1  0
  3 30  1  0
  3 31  1  0
  5 32  1  0
 10 33  1  0
 11 34  1  0
 12 35  1  0
 14 36  1  0
 19 37  1  0
 20 38  1  0
 21 39  1  0
 23 40  1  0
 23 41  1  0
 24 42  1  0
 24 43  1  0
 24 44  1  0
M  END
>  <meeko>  (1) 
{"is_sidechain": [false], "free_energy": -7.534, "intermolecular_energy": -9.736, "internal_energy": -0.648}

$$$$
cand_033_out
     RDKit          3D

 44 46  0  0  0  0  0  0  0  0999 V2000
  180.1680   19.2530   46.1560 C   0  0  0  0  0  0  0  0  0  0  0  0
  179.7590   20.3350   47.1420 C   0  0  0  0  0  0  0  0  0  0  0  0
  178.5660   21.1400   46.6240 C   0  0  0  0  0  0  0  0  0  0  0  0
  177.3660   21.0140   47.5370 C   0  0  0  0  0  0  0  0  0  0  0  0
  177.2400   21.9410   48.5930 C   0  0  0  0  0  0  0  0  0  0  0  0
  176.1750   21.8890   49.5010 C   0  0  0  0  0  0  0  0  0  0  0  0
  176.0310   22.8770   50.5910 C   0  0  0  0  0  0  0  0  0  0  0  0
  175.5510   24.1040   50.1470 O   0  0  0  0  0  0  0  0  0  0  0  0
  175.3700   25.1150   51.0560 C   0  0  0  0  0  0  0  0  0  0  0  0
  174.9010   26.3340   50.5650 C   0  0  0  0  0  0  0  0  0  0  0  0
  174.6940   27.4040   51.4380 C   0  0  0  0  0  0  0  0  0  0  0  0
  174.9550   27.2550   52.8020 C   0  0  0  0  0  0  0  0  0  0  0  0
  175.4220   26.0380   53.2890 C   0  0  0  0  0  0  0  0  0  0  0  0
  175.6570   25.9600   54.6350 O   0  0  0  0  0  0  0  0  0  0  0  0
  175.6300   24.9670   52.4150 C   0  0  0  0  0  0  0  0  0  0  0  0
  176.1200   23.6710   52.8870 C   0  0  0  0  0  0  0  0  0  0  0  0
  176.3660   23.4610   54.0730 O   0  0  0  0  0  0  0  0  0  0  0  0
  176.3150   22.6050   51.8780 C   0  0  0  0  0  0  0  0  0  0  0  0
  176.7660   21.3800   52.3360 O   0  0  0  0  0  0  0  0  0  0  0  0
  175.2090   20.8920   49.3330 C   0  0  0  0  0  0  0  0  0  0  0  0
  175.3200   19.9610   48.2970 C   0  0  0  0  0  0  0  0  0  0  0  0
  176.3970   20.0010   47.3960 C   0  0  0  0  0  0  0  0  0  0  0  0
  176.4420   18.9640   46.2960 C   0  0  0  0  0  0  0  0  0  0  0  0
  175.4390   17.8440   46.5300 C   0  0  0  0  0  0  0  0  0  0  0  0
  180.5045   18.3627   46.7074 H   0  0  0  0  0  0  0  0  0  0  0  0
  179.3076   18.9891   45.5235 H   0  0  0  0  0  0  0  0  0  0  0  0
  180.9879   19.6242   45.5235 H   0  0  0  0  0  0  0  0  0  0  0  0
  179.4850   19.8636   48.0973 H   0  0  0  0  0  0  0  0  0  0  0  0
  180.6083   21.0213   47.2748 H   0  0  0  0  0  0  0  0  0  0  0  0
  178.8532   22.1997   46.5572 H   0  0  0  0  0  0  0  0  0  0  0  0
  178.2881   20.7435   45.6363 H   0  0  0  0  0  0  0  0  0  0  0  0
  178.0005   22.7276   48.7065 H   0  0  0  0  0  0  0  0  0  0  0  0
  174.6945   26.4520   49.4910 H   0  0  0  0  0  0  0  0  0  0  0  0
  174.3250   28.3653   51.0510 H   0  0  0  0  0  0  0  0  0  0  0  0
  174.7918   28.0978   53.4897 H   0  0  0  0  0  0  0  0  0  0  0  0
  176.1030   25.2180   54.9910 H   0  0  0  0  0  0  0  0  0  0  0  0
  177.6130   21.3110   52.7320 H   0  0  0  0  0  0  0  0  0  0  0  0
  174.3538   20.8402   50.0228 H   0  0  0  0  0  0  0  0  0  0  0  0
  174.5505   19.1830   48.1850 H   0  0  0  0  0  0  0  0  0  0  0  0
  176.2124   19.4523   45.3374 H   0  0  0  0  0  0  0  0  0  0  0  0
  177.4494   18.5224   46.2851 H   0  0  0  0  0  0  0  0  0  0  0  0
  175.3037   17.6929   47.6111 H   0  0  0  0  0  0  0  0  0  0  0  0
  174.4750   18.1139   46.0740 H   0  0  0  0  0  0  0  0  0  0  0  0
  175.8132   16.9155   46.0740 H   0  0  0  0  0  0  0  0  0  0  0  0
  1  2  1  0
  2  3  1  0
  3  4  1  0
  4  5  2  0
  5  6  1  0
  6  7  1  0
  7  8  1  0
  8  9  1  0
  9 10  2  0
 10 11  1  0
 11 12  2  0
 12 13  1  0
 13 14  1  0
 13 15  2  0
 15 16  1  0
 16 17  2  0
 16 18  1  0
 18 19  1  0
  6 20  2  0
 20 21  1  0
 21 22  2  0
 22 23  1  0
 23 24  1  0
 22  4  1  0
 18  7  2  0
 15  9  1  0
  1 25  1  0
  1 26  1  0
  1 27  1  0
  2 28  1  0
  2 29  1  0
  3 30  1  0
  3 31  1  0
  5 32  1  0
 10 33  1  0
 11 34  1  0
 12 35  1  0
 14 36  1  0
 19 37  1  0
 20 38  1  0
 21 39  1  0
 23 40  1  0
 23 41  1  0
 24 42  1  0
 24 43  1  0
 24 44  1  0
M  END
>  <meeko>  (2) 
{"is_sidechain": [false], "free_energy": -7.317, "intermolecular_energy": -9.312, "internal_energy": -0.792}

$$$$
cand_033_out
     RDKit          3D

 44 46  0  0  0  0  0  0  0  0999 V2000
  178.9230   12.2140   45.5430 C   0  0  0  0  0  0  0  0  0  0  0  0
  179.0970   13.6600   45.1110 C   0  0  0  0  0  0  0  0  0  0  0  0
  180.5700   13.9990   44.8750 C   0  0  0  0  0  0  0  0  0  0  0  0
  180.7360   15.3590   44.2340 C   0  0  0  0  0  0  0  0  0  0  0  0
  180.6110   16.4960   45.0590 C   0  0  0  0  0  0  0  0  0  0  0  0
  180.7270   17.7970   44.5500 C   0  0  0  0  0  0  0  0  0  0  0  0
  180.6210   18.9870   45.4210 C   0  0  0  0  0  0  0  0  0  0  0  0
  181.7680   19.7730   45.4010 O   0  0  0  0  0  0  0  0  0  0  0  0
  181.8060   20.9110   46.1670 C   0  0  0  0  0  0  0  0  0  0  0  0
  182.9810   21.6610   46.1290 C   0  0  0  0  0  0  0  0  0  0  0  0
  183.0850   22.8320   46.8840 C   0  0  0  0  0  0  0  0  0  0  0  0
  182.0140   23.2520   47.6760 C   0  0  0  0  0  0  0  0  0  0  0  0
  180.8420   22.5000   47.7110 C   0  0  0  0  0  0  0  0  0  0  0  0
  179.8320   22.9690   48.5060 O   0  0  0  0  0  0  0  0  0  0  0  0
  180.7390   21.3290   46.9560 C   0  0  0  0  0  0  0  0  0  0  0  0
  179.5250   20.5100   46.9650 C   0  0  0  0  0  0  0  0  0  0  0  0
  178.5390   20.8180   47.6310 O   0  0  0  0  0  0  0  0  0  0  0  0
  179.5210   19.2830   46.1360 C   0  0  0  0  0  0  0  0  0  0  0  0
  178.3650   18.5250   46.1420 O   0  0  0  0  0  0  0  0  0  0  0  0
  180.9900   17.9530   43.1860 C   0  0  0  0  0  0  0  0  0  0  0  0
  181.1120   16.8390   42.3520 C   0  0  0  0  0  0  0  0  0  0  0  0
  180.9780   15.5350   42.8570 C   0  0  0  0  0  0  0  0  0  0  0  0
  181.1320   14.3800   41.8930 C   0  0  0  0  0  0  0  0  0  0  0  0
  181.0410   14.8350   40.4430 C   0  0  0  0  0  0  0  0  0  0  0  0
  178.9162   12.1578   46.6415 H   0  0  0  0  0  0  0  0  0  0  0  0
  177.9717   11.8259   45.1501 H   0  0  0  0  0  0  0  0  0  0  0  0
  179.7551   11.6113   45.1501 H   0  0  0  0  0  0  0  0  0  0  0  0
  178.5380   13.8245   44.1780 H   0  0  0  0  0  0  0  0  0  0  0  0
  178.7168   14.3091   45.9136 H   0  0  0  0  0  0  0  0  0  0  0  0
  181.0961   13.9937   45.8410 H   0  0  0  0  0  0  0  0  0  0  0  0
  180.9901   13.2452   44.1929 H   0  0  0  0  0  0  0  0  0  0  0  0
  180.4169   16.3580   46.1329 H   0  0  0  0  0  0  0  0  0  0  0  0
  183.8250   21.3311   45.5054 H   0  0  0  0  0  0  0  0  0  0  0  0
  184.0117   23.4240   46.8546 H   0  0  0  0  0  0  0  0  0  0  0  0
  182.0958   24.1740   48.2704 H   0  0  0  0  0  0  0  0  0  0  0  0
  178.9990   23.1770   48.1320 H   0  0  0  0  0  0  0  0  0  0  0  0
  177.7830   18.5630   46.8760 H   0  0  0  0  0  0  0  0  0  0  0  0
  181.1020   18.9631   42.7651 H   0  0  0  0  0  0  0  0  0  0  0  0
  181.3166   16.9854   41.2812 H   0  0  0  0  0  0  0  0  0  0  0  0
  182.1121   13.9082   42.0569 H   0  0  0  0  0  0  0  0  0  0  0  0
  180.3136   13.6690   42.0793 H   0  0  0  0  0  0  0  0  0  0  0  0
  180.8254   15.9131   40.4099 H   0  0  0  0  0  0  0  0  0  0  0  0
  181.9966   14.6364   39.9357 H   0  0  0  0  0  0  0  0  0  0  0  0
  180.2352   14.2842   39.9357 H   0  0  0  0  0  0  0  0  0  0  0  0
  1  2  1  0
  2  3  1  0
  3  4  1  0
  4  5  2  0
  5  6  1  0
  6  7  1  0
  7  8  1  0
  8  9  1  0
  9 10  2  0
 10 11  1  0
 11 12  2  0
 12 13  1  0
 13 14  1  0
 13 15  2  0
 15 16  1  0
 16 17  2  0
 16 18  1  0
 18 19  1  0
  6 20  2  0
 20 21  1  0
 21 22  2  0
 22 23  1  0
 23 24  1  0
 22  4  1  0
 18  7  2  0
 15  9  1  0
  1 25  1  0
  1 26  1  0
  1 27  1  0
  2 28  1  0
  2 29  1  0
  3 30  1  0
  3 31  1  0
  5 32  1  0
 10 33  1  0
 11 34  1  0
 12 35  1  0
 14 36  1  0
 19 37  1  0
 20 38  1  0
 21 39  1  0
 23 40  1  0
 23 41  1  0
 24 42  1  0
 24 43  1  0
 24 44  1  0
M  END
>  <meeko>  (3) 
{"is_sidechain": [false], "free_energy": -7.248, "intermolecular_energy": -9.416, "internal_energy": -0.599}

$$$$
cand_033_out
     RDKit          3D

 44 46  0  0  0  0  0  0  0  0999 V2000
  180.4720   22.8490   47.6910 C   0  0  0  0  0  0  0  0  0  0  0  0
  179.3910   23.7700   48.2330 C   0  0  0  0  0  0  0  0  0  0  0  0
  178.1470   23.7570   47.3410 C   0  0  0  0  0  0  0  0  0  0  0  0
  177.0850   22.8210   47.8750 C   0  0  0  0  0  0  0  0  0  0  0  0
  176.2980   23.2660   48.9570 C   0  0  0  0  0  0  0  0  0  0  0  0
  175.3050   22.4610   49.5310 C   0  0  0  0  0  0  0  0  0  0  0  0
  174.4640   22.9390   50.6490 C   0  0  0  0  0  0  0  0  0  0  0  0
  175.2060   23.3020   51.7670 O   0  0  0  0  0  0  0  0  0  0  0  0
  174.5500   23.7630   52.8790 C   0  0  0  0  0  0  0  0  0  0  0  0
  175.3340   24.1020   53.9820 C   0  0  0  0  0  0  0  0  0  0  0  0
  174.7270   24.5800   55.1470 C   0  0  0  0  0  0  0  0  0  0  0  0
  173.3390   24.7190   55.2070 C   0  0  0  0  0  0  0  0  0  0  0  0
  172.5600   24.3810   54.1030 C   0  0  0  0  0  0  0  0  0  0  0  0
  171.2080   24.5430   54.2300 O   0  0  0  0  0  0  0  0  0  0  0  0
  173.1670   23.9030   52.9390 C   0  0  0  0  0  0  0  0  0  0  0  0
  172.3850   23.5350   51.7570 C   0  0  0  0  0  0  0  0  0  0  0  0
  171.1600   23.6360   51.7310 O   0  0  0  0  0  0  0  0  0  0  0  0
  173.1230   23.0300   50.5770 C   0  0  0  0  0  0  0  0  0  0  0  0
  172.3750   22.6990   49.4620 O   0  0  0  0  0  0  0  0  0  0  0  0
  175.0920   21.1880   48.9940 C   0  0  0  0  0  0  0  0  0  0  0  0
  175.8660   20.7270   47.9250 C   0  0  0  0  0  0  0  0  0  0  0  0
  176.8740   21.5270   47.3600 C   0  0  0  0  0  0  0  0  0  0  0  0
  177.6630   20.9610   46.2010 C   0  0  0  0  0  0  0  0  0  0  0  0
  178.3960   19.6840   46.5820 C   0  0  0  0  0  0  0  0  0  0  0  0
  181.0142   22.3870   48.5292 H   0  0  0  0  0  0  0  0  0  0  0  0
  180.0095   22.0631   47.0758 H   0  0  0  0  0  0  0  0  0  0  0  0
  181.1745   23.4304   47.0758 H   0  0  0  0  0  0  0  0  0  0  0  0
  179.1105   23.4369   49.2432 H   0  0  0  0  0  0  0  0  0  0  0  0
  179.7894   24.7951   48.2564 H   0  0  0  0  0  0  0  0  0  0  0  0
  177.7330   24.7749   47.2919 H   0  0  0  0  0  0  0  0  0  0  0  0
  178.4447   23.4038   46.3427 H   0  0  0  0  0  0  0  0  0  0  0  0
  176.4685   24.2743   49.3623 H   0  0  0  0  0  0  0  0  0  0  0  0
  176.4276   23.9934   53.9351 H   0  0  0  0  0  0  0  0  0  0  0  0
  175.3438   24.8470   56.0178 H   0  0  0  0  0  0  0  0  0  0  0  0
  172.8618   25.0946   56.1242 H   0  0  0  0  0  0  0  0  0  0  0  0
  170.8500   25.3940   54.3870 H   0  0  0  0  0  0  0  0  0  0  0  0
  171.9510   21.8650   49.4140 H   0  0  0  0  0  0  0  0  0  0  0  0
  174.3078   20.5428   49.4167 H   0  0  0  0  0  0  0  0  0  0  0  0
  175.6830   19.7211   47.5192 H   0  0  0  0  0  0  0  0  0  0  0  0
  176.9716   20.7407   45.3743 H   0  0  0  0  0  0  0  0  0  0  0  0
  178.4133   21.7081   45.9030 H   0  0  0  0  0  0  0  0  0  0  0  0
  178.4434   19.6015   47.6779 H   0  0  0  0  0  0  0  0  0  0  0  0
  177.8584   18.8164   46.1718 H   0  0  0  0  0  0  0  0  0  0  0  0
  179.4163   19.7106   46.1718 H   0  0  0  0  0  0  0  0  0  0  0  0
  1  2  1  0
  2  3  1  0
  3  4  1  0
  4  5  2  0
  5  6  1  0
  6  7  1  0
  7  8  1  0
  8  9  1  0
  9 10  2  0
 10 11  1  0
 11 12  2  0
 12 13  1  0
 13 14  1  0
 13 15  2  0
 15 16  1  0
 16 17  2  0
 16 18  1  0
 18 19  1  0
  6 20  2  0
 20 21  1  0
 21 22  2  0
 22 23  1  0
 23 24  1  0
 22  4  1  0
 18  7  2  0
 15  9  1  0
  1 25  1  0
  1 26  1  0
  1 27  1  0
  2 28  1  0
  2 29  1  0
  3 30  1  0
  3 31  1  0
  5 32  1  0
 10 33  1  0
 11 34  1  0
 12 35  1  0
 14 36  1  0
 19 37  1  0
 20 38  1  0
 21 39  1  0
 23 40  1  0
 23 41  1  0
 24 42  1  0
 24 43  1  0
 24 44  1  0
M  END
>  <meeko>  (4) 
{"is_sidechain": [false], "free_energy": -7.241, "intermolecular_energy": -9.234, "internal_energy": -0.772}

$$$$
cand_033_out
     RDKit          3D

 44 46  0  0  0  0  0  0  0  0999 V2000
  175.5500   18.1260   46.8320 C   0  0  0  0  0  0  0  0  0  0  0  0
  176.3070   19.2790   46.1940 C   0  0  0  0  0  0  0  0  0  0  0  0
  177.7930   19.2410   46.5580 C   0  0  0  0  0  0  0  0  0  0  0  0
  178.2330   20.5140   47.2470 C   0  0  0  0  0  0  0  0  0  0  0  0
  177.4060   21.0330   48.2640 C   0  0  0  0  0  0  0  0  0  0  0  0
  177.7210   22.2190   48.9430 C   0  0  0  0  0  0  0  0  0  0  0  0
  176.8660   22.7470   50.0270 C   0  0  0  0  0  0  0  0  0  0  0  0
  175.7410   23.4110   49.5510 O   0  0  0  0  0  0  0  0  0  0  0  0
  174.8600   23.9530   50.4510 C   0  0  0  0  0  0  0  0  0  0  0  0
  173.7520   24.6230   49.9300 C   0  0  0  0  0  0  0  0  0  0  0  0
  172.8160   25.1970   50.7920 C   0  0  0  0  0  0  0  0  0  0  0  0
  172.9860   25.1010   52.1750 C   0  0  0  0  0  0  0  0  0  0  0  0
  174.0920   24.4320   52.6920 C   0  0  0  0  0  0  0  0  0  0  0  0
  174.1970   24.3740   54.0550 O   0  0  0  0  0  0  0  0  0  0  0  0
  175.0290   23.8580   51.8290 C   0  0  0  0  0  0  0  0  0  0  0  0
  176.2060   23.1460   52.3310 C   0  0  0  0  0  0  0  0  0  0  0  0
  176.4210   23.0140   53.5350 O   0  0  0  0  0  0  0  0  0  0  0  0
  177.1430   22.5820   51.3330 C   0  0  0  0  0  0  0  0  0  0  0  0
  178.2440   21.9000   51.8190 O   0  0  0  0  0  0  0  0  0  0  0  0
  178.9020   22.8840   48.5990 C   0  0  0  0  0  0  0  0  0  0  0  0
  179.7310   22.3890   47.5900 C   0  0  0  0  0  0  0  0  0  0  0  0
  179.4070   21.2100   46.8970 C   0  0  0  0  0  0  0  0  0  0  0  0
  180.3600   20.7330   45.8230 C   0  0  0  0  0  0  0  0  0  0  0  0
  181.5390   19.9700   46.4080 C   0  0  0  0  0  0  0  0  0  0  0  0
  175.6063   18.2118   47.9272 H   0  0  0  0  0  0  0  0  0  0  0  0
  174.4971   18.1588   46.5153 H   0  0  0  0  0  0  0  0  0  0  0  0
  175.9987   17.1729   46.5153 H   0  0  0  0  0  0  0  0  0  0  0  0
  176.2046   19.2130   45.1008 H   0  0  0  0  0  0  0  0  0  0  0  0
  175.8826   20.2217   46.5697 H   0  0  0  0  0  0  0  0  0  0  0  0
  177.9734   18.3904   47.2317 H   0  0  0  0  0  0  0  0  0  0  0  0
  178.3713   19.1369   45.6281 H   0  0  0  0  0  0  0  0  0  0  0  0
  176.4868   20.4919   48.5328 H   0  0  0  0  0  0  0  0  0  0  0  0
  173.6164   24.6987   48.8410 H   0  0  0  0  0  0  0  0  0  0  0  0
  171.9432   25.7258   50.3814 H   0  0  0  0  0  0  0  0  0  0  0  0
  172.2479   25.5528   52.8540 H   0  0  0  0  0  0  0  0  0  0  0  0
  173.8110   23.6610   54.5250 H   0  0  0  0  0  0  0  0  0  0  0  0
  178.3340   21.7520   52.7400 H   0  0  0  0  0  0  0  0  0  0  0  0
  179.1810   23.8068   49.1287 H   0  0  0  0  0  0  0  0  0  0  0  0
  180.6531   22.9310   47.3333 H   0  0  0  0  0  0  0  0  0  0  0  0
  179.8157   20.0716   45.1329 H   0  0  0  0  0  0  0  0  0  0  0  0
  180.7525   21.6169   45.2989 H   0  0  0  0  0  0  0  0  0  0  0  0
  181.4884   20.0028   47.5063 H   0  0  0  0  0  0  0  0  0  0  0  0
  181.5026   18.9237   46.0703 H   0  0  0  0  0  0  0  0  0  0  0  0
  182.4785   20.4318   46.0703 H   0  0  0  0  0  0  0  0  0  0  0  0
  1  2  1  0
  2  3  1  0
  3  4  1  0
  4  5  2  0
  5  6  1  0
  6  7  1  0
  7  8  1  0
  8  9  1  0
  9 10  2  0
 10 11  1  0
 11 12  2  0
 12 13  1  0
 13 14  1  0
 13 15  2  0
 15 16  1  0
 16 17  2  0
 16 18  1  0
 18 19  1  0
  6 20  2  0
 20 21  1  0
 21 22  2  0
 22 23  1  0
 23 24  1  0
 22  4  1  0
 18  7  2  0
 15  9  1  0
  1 25  1  0
  1 26  1  0
  1 27  1  0
  2 28  1  0
  2 29  1  0
  3 30  1  0
  3 31  1  0
  5 32  1  0
 10 33  1  0
 11 34  1  0
 12 35  1  0
 14 36  1  0
 19 37  1  0
 20 38  1  0
 21 39  1  0
 23 40  1  0
 23 41  1  0
 24 42  1  0
 24 43  1  0
 24 44  1  0
M  END
>  <meeko>  (5) 
{"is_sidechain": [false], "free_energy": -7.23, "intermolecular_energy": -9.222, "internal_energy": -0.769}

$$$$
cand_033_out
     RDKit          3D

 44 46  0  0  0  0  0  0  0  0999 V2000
  174.6770   22.0690   48.8870 C   0  0  0  0  0  0  0  0  0  0  0  0
  176.1560   22.3980   49.0020 C   0  0  0  0  0  0  0  0  0  0  0  0
  176.7890   22.6140   47.6260 C   0  0  0  0  0  0  0  0  0  0  0  0
  177.9870   21.7140   47.4130 C   0  0  0  0  0  0  0  0  0  0  0  0
  179.2380   22.1580   47.8880 C   0  0  0  0  0  0  0  0  0  0  0  0
  180.4060   21.4030   47.7170 C   0  0  0  0  0  0  0  0  0  0  0  0
  181.7120   21.8590   48.2380 C   0  0  0  0  0  0  0  0  0  0  0  0
  182.5220   22.4150   47.2530 O   0  0  0  0  0  0  0  0  0  0  0  0
  183.7650   22.8780   47.6000 C   0  0  0  0  0  0  0  0  0  0  0  0
  184.5490   23.4150   46.5780 C   0  0  0  0  0  0  0  0  0  0  0  0
  185.8250   23.9060   46.8630 C   0  0  0  0  0  0  0  0  0  0  0  0
  186.3160   23.8620   48.1700 C   0  0  0  0  0  0  0  0  0  0  0  0
  185.5310   23.3270   49.1870 C   0  0  0  0  0  0  0  0  0  0  0  0
  186.0730   23.3150   50.4440 O   0  0  0  0  0  0  0  0  0  0  0  0
  184.2550   22.8350   48.9010 C   0  0  0  0  0  0  0  0  0  0  0  0
  183.3970   22.2640   49.9420 C   0  0  0  0  0  0  0  0  0  0  0  0
  183.7570   22.1960   51.1160 O   0  0  0  0  0  0  0  0  0  0  0  0
  182.0660   21.7620   49.5330 C   0  0  0  0  0  0  0  0  0  0  0  0
  181.2590   21.2370   50.5260 O   0  0  0  0  0  0  0  0  0  0  0  0
  180.3070   20.1690   47.0680 C   0  0  0  0  0  0  0  0  0  0  0  0
  179.0770   19.7140   46.5860 C   0  0  0  0  0  0  0  0  0  0  0  0
  177.9080   20.4780   46.7410 C   0  0  0  0  0  0  0  0  0  0  0  0
  176.6140   19.9150   46.1990 C   0  0  0  0  0  0  0  0  0  0  0  0
  175.9360   18.9880   47.1970 C   0  0  0  0  0  0  0  0  0  0  0  0
  174.2435   21.9726   49.8934 H   0  0  0  0  0  0  0  0  0  0  0  0
  174.1634   22.8748   48.3422 H   0  0  0  0  0  0  0  0  0  0  0  0
  174.5534   21.1214   48.3422 H   0  0  0  0  0  0  0  0  0  0  0  0
  176.2732   23.3153   49.5977 H   0  0  0  0  0  0  0  0  0  0  0  0
  176.6624   21.5502   49.4865 H   0  0  0  0  0  0  0  0  0  0  0  0
  176.0389   22.3984   46.8508 H   0  0  0  0  0  0  0  0  0  0  0  0
  177.1297   23.6582   47.5656 H   0  0  0  0  0  0  0  0  0  0  0  0
  179.2989   23.1254   48.4080 H   0  0  0  0  0  0  0  0  0  0  0  0
  184.1623   23.4515   45.5489 H   0  0  0  0  0  0  0  0  0  0  0  0
  186.4440   24.3278   46.0574 H   0  0  0  0  0  0  0  0  0  0  0  0
  187.3207   24.2493   48.3948 H   0  0  0  0  0  0  0  0  0  0  0  0
  186.9960   23.2000   50.5550 H   0  0  0  0  0  0  0  0  0  0  0  0
  181.5700   20.5300   51.0570 H   0  0  0  0  0  0  0  0  0  0  0  0
  181.2065   19.5499   46.9354 H   0  0  0  0  0  0  0  0  0  0  0  0
  179.0229   18.7407   46.0763 H   0  0  0  0  0  0  0  0  0  0  0  0
  175.9333   20.7475   45.9678 H   0  0  0  0  0  0  0  0  0  0  0  0
  176.8479   19.3314   45.2964 H   0  0  0  0  0  0  0  0  0  0  0  0
  176.1742   19.3137   48.2203 H   0  0  0  0  0  0  0  0  0  0  0  0
  174.8469   19.0203   47.0461 H   0  0  0  0  0  0  0  0  0  0  0  0
  176.2968   17.9599   47.0461 H   0  0  0  0  0  0  0  0  0  0  0  0
  1  2  1  0
  2  3  1  0
  3  4  1  0
  4  5  2  0
  5  6  1  0
  6  7  1  0
  7  8  1  0
  8  9  1  0
  9 10  2  0
 10 11  1  0
 11 12  2  0
 12 13  1  0
 13 14  1  0
 13 15  2  0
 15 16  1  0
 16 17  2  0
 16 18  1  0
 18 19  1  0
  6 20  2  0
 20 21  1  0
 21 22  2  0
 22 23  1  0
 23 24  1  0
 22  4  1  0
 18  7  2  0
 15  9  1  0
  1 25  1  0
  1 26  1  0
  1 27  1  0
  2 28  1  0
  2 29  1  0
  3 30  1  0
  3 31  1  0
  5 32  1  0
 10 33  1  0
 11 34  1  0
 12 35  1  0
 14 36  1  0
 19 37  1  0
 20 38  1  0
 21 39  1  0
 23 40  1  0
 23 41  1  0
 24 42  1  0
 24 43  1  0
 24 44  1  0
M  END
>  <meeko>  (6) 
{"is_sidechain": [false], "free_energy": -7.196, "intermolecular_energy": -9.008, "internal_energy": -0.94}

$$$$
cand_033_out
     RDKit          3D

 44 46  0  0  0  0  0  0  0  0999 V2000
  181.0850   17.3040   43.8940 C   0  0  0  0  0  0  0  0  0  0  0  0
  181.0500   18.5860   44.7090 C   0  0  0  0  0  0  0  0  0  0  0  0
  179.8970   18.5770   45.7150 C   0  0  0  0  0  0  0  0  0  0  0  0
  179.8030   19.8840   46.4710 C   0  0  0  0  0  0  0  0  0  0  0  0
  180.9860   20.4070   47.0320 C   0  0  0  0  0  0  0  0  0  0  0  0
  180.9930   21.6000   47.7680 C   0  0  0  0  0  0  0  0  0  0  0  0
  182.2390   22.1610   48.3320 C   0  0  0  0  0  0  0  0  0  0  0  0
  182.8780   23.0390   47.4640 O   0  0  0  0  0  0  0  0  0  0  0  0
  184.0490   23.6320   47.8620 C   0  0  0  0  0  0  0  0  0  0  0  0
  184.6630   24.4940   46.9530 C   0  0  0  0  0  0  0  0  0  0  0  0
  185.8570   25.1320   47.2960 C   0  0  0  0  0  0  0  0  0  0  0  0
  186.4360   24.9090   48.5480 C   0  0  0  0  0  0  0  0  0  0  0  0
  185.8190   24.0480   49.4530 C   0  0  0  0  0  0  0  0  0  0  0  0
  186.4390   23.8750   50.6600 O   0  0  0  0  0  0  0  0  0  0  0  0
  184.6250   23.4100   49.1090 C   0  0  0  0  0  0  0  0  0  0  0  0
  183.9450   22.4970   50.0300 C   0  0  0  0  0  0  0  0  0  0  0  0
  184.3890   22.2550   51.1510 O   0  0  0  0  0  0  0  0  0  0  0  0
  182.6890   21.8650   49.5650 C   0  0  0  0  0  0  0  0  0  0  0  0
  182.0490   21.0150   50.4490 O   0  0  0  0  0  0  0  0  0  0  0  0
  179.7850   22.2860   47.9280 C   0  0  0  0  0  0  0  0  0  0  0  0
  178.6010   21.7800   47.3850 C   0  0  0  0  0  0  0  0  0  0  0  0
  178.5900   20.5750   46.6620 C   0  0  0  0  0  0  0  0  0  0  0  0
  177.2710   20.0970   46.0980 C   0  0  0  0  0  0  0  0  0  0  0  0
  176.1040   20.9430   46.5870 C   0  0  0  0  0  0  0  0  0  0  0  0
  181.1086   16.4386   44.5726 H   0  0  0  0  0  0  0  0  0  0  0  0
  180.1881   17.2482   43.2597 H   0  0  0  0  0  0  0  0  0  0  0  0
  181.9837   17.2972   43.2597 H   0  0  0  0  0  0  0  0  0  0  0  0
  181.9998   18.6895   45.2542 H   0  0  0  0  0  0  0  0  0  0  0  0
  180.9014   19.4303   44.0198 H   0  0  0  0  0  0  0  0  0  0  0  0
  178.9538   18.4093   45.1745 H   0  0  0  0  0  0  0  0  0  0  0  0
  180.0832   17.7731   46.4424 H   0  0  0  0  0  0  0  0  0  0  0  0
  181.9311   19.8630   46.8879 H   0  0  0  0  0  0  0  0  0  0  0  0
  184.2073   24.6709   45.9676 H   0  0  0  0  0  0  0  0  0  0  0  0
  186.3423   25.8111   46.5795 H   0  0  0  0  0  0  0  0  0  0  0  0
  187.3763   25.4118   48.8183 H   0  0  0  0  0  0  0  0  0  0  0  0
  185.9450   23.5930   51.4050 H   0  0  0  0  0  0  0  0  0  0  0  0
  182.5070   20.2800   50.8070 H   0  0  0  0  0  0  0  0  0  0  0  0
  179.7666   23.2333   48.4868 H   0  0  0  0  0  0  0  0  0  0  0  0
  177.6615   22.3344   47.5259 H   0  0  0  0  0  0  0  0  0  0  0  0
  177.3135   20.1506   45.0001 H   0  0  0  0  0  0  0  0  0  0  0  0
  177.1091   19.0638   46.4389 H   0  0  0  0  0  0  0  0  0  0  0  0
  176.0926   20.9512   47.6869 H   0  0  0  0  0  0  0  0  0  0  0  0
  176.2151   21.9718   46.2137 H   0  0  0  0  0  0  0  0  0  0  0  0
  175.1608   20.5174   46.2137 H   0  0  0  0  0  0  0  0  0  0  0  0
  1  2  1  0
  2  3  1  0
  3  4  1  0
  4  5  2  0
  5  6  1  0
  6  7  1  0
  7  8  1  0
  8  9  1  0
  9 10  2  0
 10 11  1  0
 11 12  2  0
 12 13  1  0
 13 14  1  0
 13 15  2  0
 15 16  1  0
 16 17  2  0
 16 18  1  0
 18 19  1  0
  6 20  2  0
 20 21  1  0
 21 22  2  0
 22 23  1  0
 23 24  1  0
 22  4  1  0
 18  7  2  0
 15  9  1  0
  1 25  1  0
  1 26  1  0
  1 27  1  0
  2 28  1  0
  2 29  1  0
  3 30  1  0
  3 31  1  0
  5 32  1  0
 10 33  1  0
 11 34  1  0
 12 35  1  0
 14 36  1  0
 19 37  1  0
 20 38  1  0
 21 39  1  0
 23 40  1  0
 23 41  1  0
 24 42  1  0
 24 43  1  0
 24 44  1  0
M  END
>  <meeko>  (7) 
{"is_sidechain": [false], "free_energy": -7.123, "intermolecular_energy": -9.126, "internal_energy": -0.727}

$$$$
cand_033_out
     RDKit          3D

 44 46  0  0  0  0  0  0  0  0999 V2000
  183.3170   22.0240   48.8320 C   0  0  0  0  0  0  0  0  0  0  0  0
  182.2840   21.1280   48.1690 C   0  0  0  0  0  0  0  0  0  0  0  0
  181.4020   21.9160   47.1980 C   0  0  0  0  0  0  0  0  0  0  0  0
  179.9530   21.4910   47.2870 C   0  0  0  0  0  0  0  0  0  0  0  0
  179.1800   22.0010   48.3500 C   0  0  0  0  0  0  0  0  0  0  0  0
  177.8350   21.6460   48.5260 C   0  0  0  0  0  0  0  0  0  0  0  0
  177.0190   22.2020   49.6260 C   0  0  0  0  0  0  0  0  0  0  0  0
  175.9080   22.9040   49.1720 O   0  0  0  0  0  0  0  0  0  0  0  0
  175.0630   23.4750   50.0890 C   0  0  0  0  0  0  0  0  0  0  0  0
  173.9680   24.1810   49.5890 C   0  0  0  0  0  0  0  0  0  0  0  0
  173.0680   24.7860   50.4700 C   0  0  0  0  0  0  0  0  0  0  0  0
  173.2620   24.6820   51.8490 C   0  0  0  0  0  0  0  0  0  0  0  0
  174.3550   23.9760   52.3440 C   0  0  0  0  0  0  0  0  0  0  0  0
  174.4840   23.9140   53.7050 O   0  0  0  0  0  0  0  0  0  0  0  0
  175.2550   23.3720   51.4630 C   0  0  0  0  0  0  0  0  0  0  0  0
  176.4170   22.6210   51.9430 C   0  0  0  0  0  0  0  0  0  0  0  0
  176.6510   22.4800   53.1410 O   0  0  0  0  0  0  0  0  0  0  0  0
  177.3150   22.0260   50.9260 C   0  0  0  0  0  0  0  0  0  0  0  0
  178.4020   21.3080   51.3910 O   0  0  0  0  0  0  0  0  0  0  0  0
  177.2550   20.7720   47.6020 C   0  0  0  0  0  0  0  0  0  0  0  0
  178.0070   20.2510   46.5450 C   0  0  0  0  0  0  0  0  0  0  0  0
  179.3590   20.5920   46.3780 C   0  0  0  0  0  0  0  0  0  0  0  0
  180.1030   19.9940   45.2050 C   0  0  0  0  0  0  0  0  0  0  0  0
  180.4680   18.5370   45.4470 C   0  0  0  0  0  0  0  0  0  0  0  0
  183.2244   21.9437   49.9252 H   0  0  0  0  0  0  0  0  0  0  0  0
  184.3256   21.7099   48.5254 H   0  0  0  0  0  0  0  0  0  0  0  0
  183.1486   23.0669   48.5254 H   0  0  0  0  0  0  0  0  0  0  0  0
  182.8034   20.3320   47.6152 H   0  0  0  0  0  0  0  0  0  0  0  0
  181.6408   20.7023   48.9532 H   0  0  0  0  0  0  0  0  0  0  0  0
  181.4748   22.9868   47.4391 H   0  0  0  0  0  0  0  0  0  0  0  0
  181.7553   21.7171   46.1755 H   0  0  0  0  0  0  0  0  0  0  0  0
  179.6457   22.6979   49.0623 H   0  0  0  0  0  0  0  0  0  0  0  0
  173.8137   24.2611   48.5028 H   0  0  0  0  0  0  0  0  0  0  0  0
  172.2058   25.3447   50.0770 H   0  0  0  0  0  0  0  0  0  0  0  0
  172.5526   25.1569   52.5427 H   0  0  0  0  0  0  0  0  0  0  0  0
  173.9040   24.4050   54.2540 H   0  0  0  0  0  0  0  0  0  0  0  0
  178.9680   20.8710   50.7850 H   0  0  0  0  0  0  0  0  0  0  0  0
  176.1966   20.4915   47.7077 H   0  0  0  0  0  0  0  0  0  0  0  0
  177.5314   19.5619   45.8316 H   0  0  0  0  0  0  0  0  0  0  0  0
  179.4659   20.0570   44.3105 H   0  0  0  0  0  0  0  0  0  0  0  0
  181.0359   20.5607   45.0687 H   0  0  0  0  0  0  0  0  0  0  0  0
  180.5159   18.3459   46.5292 H   0  0  0  0  0  0  0  0  0  0  0  0
  179.7048   17.8876   44.9934 H   0  0  0  0  0  0  0  0  0  0  0  0
  181.4472   18.3241   44.9934 H   0  0  0  0  0  0  0  0  0  0  0  0
  1  2  1  0
  2  3  1  0
  3  4  1  0
  4  5  2  0
  5  6  1  0
  6  7  1  0
  7  8  1  0
  8  9  1  0
  9 10  2  0
 10 11  1  0
 11 12  2  0
 12 13  1  0
 13 14  1  0
 13 15  2  0
 15 16  1  0
 16 17  2  0
 16 18  1  0
 18 19  1  0
  6 20  2  0
 20 21  1  0
 21 22  2  0
 22 23  1  0
 23 24  1  0
 22  4  1  0
 18  7  2  0
 15  9  1  0
  1 25  1  0
  1 26  1  0
  1 27  1  0
  2 28  1  0
  2 29  1  0
  3 30  1  0
  3 31  1  0
  5 32  1  0
 10 33  1  0
 11 34  1  0
 12 35  1  0
 14 36  1  0
 19 37  1  0
 20 38  1  0
 21 39  1  0
 23 40  1  0
 23 41  1  0
 24 42  1  0
 24 43  1  0
 24 44  1  0
M  END
>  <meeko>  (8) 
{"is_sidechain": [false], "free_energy": -7.104, "intermolecular_energy": -9.139, "internal_energy": -0.689}

$$$$
cand_033_out
     RDKit          3D

 44 46  0  0  0  0  0  0  0  0999 V2000
  174.9210   25.5000   52.5870 C   0  0  0  0  0  0  0  0  0  0  0  0
  175.5940   26.1440   51.3860 C   0  0  0  0  0  0  0  0  0  0  0  0
  174.8640   25.8000   50.0860 C   0  0  0  0  0  0  0  0  0  0  0  0
  175.0170   24.3380   49.7280 C   0  0  0  0  0  0  0  0  0  0  0  0
  176.3110   23.8650   49.4290 C   0  0  0  0  0  0  0  0  0  0  0  0
  176.5470   22.5320   49.0650 C   0  0  0  0  0  0  0  0  0  0  0  0
  177.9080   22.0320   48.7770 C   0  0  0  0  0  0  0  0  0  0  0  0
  178.0400   21.5440   47.4820 O   0  0  0  0  0  0  0  0  0  0  0  0
  179.2530   21.0460   47.0800 C   0  0  0  0  0  0  0  0  0  0  0  0
  179.3370   20.5540   45.7780 C   0  0  0  0  0  0  0  0  0  0  0  0
  180.5440   20.0340   45.3050 C   0  0  0  0  0  0  0  0  0  0  0  0
  181.6680   20.0080   46.1350 C   0  0  0  0  0  0  0  0  0  0  0  0
  181.5810   20.5020   47.4340 C   0  0  0  0  0  0  0  0  0  0  0  0
  182.7180   20.4470   48.1920 O   0  0  0  0  0  0  0  0  0  0  0  0
  180.3730   21.0210   47.9060 C   0  0  0  0  0  0  0  0  0  0  0  0
  180.2390   21.5490   49.2660 C   0  0  0  0  0  0  0  0  0  0  0  0
  181.1840   21.5660   50.0520 O   0  0  0  0  0  0  0  0  0  0  0  0
  178.9130   22.0680   49.6710 C   0  0  0  0  0  0  0  0  0  0  0  0
  178.8020   22.5760   50.9520 O   0  0  0  0  0  0  0  0  0  0  0  0
  175.4580   21.6570   49.0180 C   0  0  0  0  0  0  0  0  0  0  0  0
  174.1680   22.1080   49.3050 C   0  0  0  0  0  0  0  0  0  0  0  0
  173.9270   23.4480   49.6530 C   0  0  0  0  0  0  0  0  0  0  0  0
  172.5040   23.8590   49.9580 C   0  0  0  0  0  0  0  0  0  0  0  0
  171.7530   24.2790   48.7040 C   0  0  0  0  0  0  0  0  0  0  0  0
  175.3507   25.9112   53.5123 H   0  0  0  0  0  0  0  0  0  0  0  0
  173.8417   25.7103   52.5589 H   0  0  0  0  0  0  0  0  0  0  0  0
  175.0836   24.4124   52.5589 H   0  0  0  0  0  0  0  0  0  0  0  0
  175.5937   27.2360   51.5185 H   0  0  0  0  0  0  0  0  0  0  0  0
  176.6223   25.7594   51.3178 H   0  0  0  0  0  0  0  0  0  0  0  0
  173.7946   26.0273   50.2069 H   0  0  0  0  0  0  0  0  0  0  0  0
  175.3055   26.3993   49.2761 H   0  0  0  0  0  0  0  0  0  0  0  0
  177.1601   24.5622   49.4829 H   0  0  0  0  0  0  0  0  0  0  0  0
  178.4531   20.5754   45.1236 H   0  0  0  0  0  0  0  0  0  0  0  0
  180.6099   19.6446   44.2783 H   0  0  0  0  0  0  0  0  0  0  0  0
  182.6188   19.5984   45.7632 H   0  0  0  0  0  0  0  0  0  0  0  0
  182.8960   19.6910   48.7170 H   0  0  0  0  0  0  0  0  0  0  0  0
  179.5130   22.4840   51.5560 H   0  0  0  0  0  0  0  0  0  0  0  0
  175.6189   20.6018   48.7521 H   0  0  0  0  0  0  0  0  0  0  0  0
  173.3257   21.4020   49.2579 H   0  0  0  0  0  0  0  0  0  0  0  0
  171.9794   23.0089   50.4185 H   0  0  0  0  0  0  0  0  0  0  0  0
  172.5374   24.7215   50.6399 H   0  0  0  0  0  0  0  0  0  0  0  0
  170.8256   24.7977   48.9884 H   0  0  0  0  0  0  0  0  0  0  0  0
  172.3835   24.9554   48.1083 H   0  0  0  0  0  0  0  0  0  0  0  0
  171.5067   23.3877   48.1083 H   0  0  0  0  0  0  0  0  0  0  0  0
  1  2  1  0
  2  3  1  0
  3  4  1  0
  4  5  2  0
  5  6  1  0
  6  7  1  0
  7  8  1  0
  8  9  1  0
  9 10  2  0
 10 11  1  0
 11 12  2  0
 12 13  1  0
 13 14  1  0
 13 15  2  0
 15 16  1  0
 16 17  2  0
 16 18  1  0
 18 19  1  0
  6 20  2  0
 20 21  1  0
 21 22  2  0
 22 23  1  0
 23 24  1  0
 22  4  1  0
 18  7  2  0
 15  9  1  0
  1 25  1  0
  1 26  1  0
  1 27  1  0
  2 28  1  0
  2 29  1  0
  3 30  1  0
  3 31  1  0
  5 32  1  0
 10 33  1  0
 11 34  1  0
 12 35  1  0
 14 36  1  0
 19 37  1  0
 20 38  1  0
 21 39  1  0
 23 40  1  0
 23 41  1  0
 24 42  1  0
 24 43  1  0
 24 44  1  0
M  END
>  <meeko>  (9) 
{"is_sidechain": [false], "free_energy": -7.039, "intermolecular_energy": -8.973, "internal_energy": -0.771}

$$$$
