cand_040_out
     RDKit          3D

 36 38  0  0  0  0  0  0  0  0999 V2000
  181.4620   14.7430   41.5210 C   0  0  0  0  0  0  0  0  0  0  0  0
  181.9090   14.9970   42.7570 C   0  0  0  0  0  0  0  0  0  0  0  0
  181.2870   15.9780   43.6580 C   0  0  0  0  0  0  0  0  0  0  0  0
  181.5870   17.3400   43.5110 C   0  0  0  0  0  0  0  0  0  0  0  0
  180.9860   18.3010   44.3290 C   0  0  0  0  0  0  0  0  0  0  0  0
  180.0570   17.9270   45.3070 C   0  0  0  0  0  0  0  0  0  0  0  0
  179.4500   18.9560   46.1780 C   0  0  0  0  0  0  0  0  0  0  0  0
  178.0620   18.8850   46.2110 O   0  0  0  0  0  0  0  0  0  0  0  0
  177.3710   19.7830   46.9830 C   0  0  0  0  0  0  0  0  0  0  0  0
  175.9780   19.6840   46.9740 C   0  0  0  0  0  0  0  0  0  0  0  0
  175.2130   20.5680   47.7390 C   0  0  0  0  0  0  0  0  0  0  0  0
  175.8400   21.5490   48.5120 C   0  0  0  0  0  0  0  0  0  0  0  0
  177.2290   21.6440   48.5170 C   0  0  0  0  0  0  0  0  0  0  0  0
  177.7770   22.6270   49.2960 O   0  0  0  0  0  0  0  0  0  0  0  0
  177.9940   20.7610   47.7510 C   0  0  0  0  0  0  0  0  0  0  0  0
  179.4560   20.8270   47.7290 C   0  0  0  0  0  0  0  0  0  0  0  0
  180.0800   21.6570   48.3880 O   0  0  0  0  0  0  0  0  0  0  0  0
  180.1740   19.8500   46.8780 C   0  0  0  0  0  0  0  0  0  0  0  0
  181.5540   19.9130   46.8750 O   0  0  0  0  0  0  0  0  0  0  0  0
  179.7570   16.5650   45.4540 C   0  0  0  0  0  0  0  0  0  0  0  0
  180.3580   15.5840   44.6400 C   0  0  0  0  0  0  0  0  0  0  0  0
  179.9810   14.1410   44.8440 C   0  0  0  0  0  0  0  0  0  0  0  0
  181.9716   13.9961   40.8945 H   0  0  0  0  0  0  0  0  0  0  0  0
  180.5851   15.2812   41.1319 H   0  0  0  0  0  0  0  0  0  0  0  0
  182.7880   14.4425   43.1174 H   0  0  0  0  0  0  0  0  0  0  0  0
  182.3057   17.6567   42.7408 H   0  0  0  0  0  0  0  0  0  0  0  0
  181.2458   19.3624   44.2028 H   0  0  0  0  0  0  0  0  0  0  0  0
  175.4842   18.9117   46.3659 H   0  0  0  0  0  0  0  0  0  0  0  0
  174.1157   20.4917   47.7329 H   0  0  0  0  0  0  0  0  0  0  0  0
  175.2376   22.2444   49.1150 H   0  0  0  0  0  0  0  0  0  0  0  0
  177.7490   22.5550   50.2300 H   0  0  0  0  0  0  0  0  0  0  0  0
  181.9860   20.7270   46.7020 H   0  0  0  0  0  0  0  0  0  0  0  0
  179.0348   16.2547   46.2236 H   0  0  0  0  0  0  0  0  0  0  0  0
  179.9247   13.9255   45.9212 H   0  0  0  0  0  0  0  0  0  0  0  0
  179.0024   13.9485   44.3799 H   0  0  0  0  0  0  0  0  0  0  0  0
  180.7404   13.4945   44.3799 H   0  0  0  0  0  0  0  0  0  0  0  0
  1  2  2  0
  2  3  1  0
  3  4  2  0
  4  5  1  0
  5  6  2  0
  6  7  1  0
  7  8  1  0
  8  9  1  0
  9 10  2  0
 10 11  1  0
 11 12  2  0
 12 13  1  0
 13 14  1  0
 13 15  2  0
 15 16  1  0
 16 17  2  0
 16 18  1  0
 18 19  1  0
  6 20  1  0
 20 21  2  0
 21 22  1  0
 21  3  1  0
 18  7  2  0
 15  9  1  0
  1 23  1  0
  1 24  1  0
  2 25  1  0
  4 26  1  0
  5 27  1  0
 10 28  1  0
 11 29  1  0
 12 30  1  0
 14 31  1  0
 19 32  1  0
 20 33  1  0
 22 34  1  0
 22 35  1  0
 22 36  1  0
M  END
>  <meeko>  (1) 
{"is_sidechain": [false], "free_energy": -8.065, "intermolecular_energy": -9.48, "internal_energy": -0.206}

$$$$
cand_040_out
     RDKit          3D

 36 38  0  0  0  0  0  0  0  0999 V2000
  181.1360   14.8370   40.8790 C   0  0  0  0  0  0  0  0  0  0  0  0
  181.2960   14.6460   42.1940 C   0  0  0  0  0  0  0  0  0  0  0  0
  181.0230   15.6810   43.2020 C   0  0  0  0  0  0  0  0  0  0  0  0
  181.4610   16.9950   42.9820 C   0  0  0  0  0  0  0  0  0  0  0  0
  181.1880   18.0090   43.9040 C   0  0  0  0  0  0  0  0  0  0  0  0
  180.4560   17.7390   45.0660 C   0  0  0  0  0  0  0  0  0  0  0  0
  180.1980   18.8200   46.0410 C   0  0  0  0  0  0  0  0  0  0  0  0
  181.3660   19.3890   46.5380 O   0  0  0  0  0  0  0  0  0  0  0  0
  181.2710   20.4060   47.4530 C   0  0  0  0  0  0  0  0  0  0  0  0
  182.4680   20.9360   47.9370 C   0  0  0  0  0  0  0  0  0  0  0  0
  182.4420   21.9750   48.8700 C   0  0  0  0  0  0  0  0  0  0  0  0
  181.2210   22.4840   49.3180 C   0  0  0  0  0  0  0  0  0  0  0  0
  180.0290   21.9520   48.8330 C   0  0  0  0  0  0  0  0  0  0  0  0
  178.8700   22.4980   49.3130 O   0  0  0  0  0  0  0  0  0  0  0  0
  180.0550   20.9120   47.9000 C   0  0  0  0  0  0  0  0  0  0  0  0
  178.8250   20.3250   47.3650 C   0  0  0  0  0  0  0  0  0  0  0  0
  177.7130   20.7240   47.7050 O   0  0  0  0  0  0  0  0  0  0  0  0
  178.9610   19.2220   46.3870 C   0  0  0  0  0  0  0  0  0  0  0  0
  177.7940   18.6840   45.8790 O   0  0  0  0  0  0  0  0  0  0  0  0
  180.0180   16.4250   45.2880 C   0  0  0  0  0  0  0  0  0  0  0  0
  180.2890   15.3920   44.3690 C   0  0  0  0  0  0  0  0  0  0  0  0
  179.7790   14.0070   44.6630 C   0  0  0  0  0  0  0  0  0  0  0  0
  181.3574   14.0222   40.1739 H   0  0  0  0  0  0  0  0  0  0  0  0
  180.7831   15.8088   40.5033 H   0  0  0  0  0  0  0  0  0  0  0  0
  181.6503   13.6633   42.5387 H   0  0  0  0  0  0  0  0  0  0  0  0
  182.0282   17.2311   42.0696 H   0  0  0  0  0  0  0  0  0  0  0  0
  181.5521   19.0296   43.7146 H   0  0  0  0  0  0  0  0  0  0  0  0
  183.4301   20.5361   47.5843 H   0  0  0  0  0  0  0  0  0  0  0  0
  183.3848   22.3931   49.2526 H   0  0  0  0  0  0  0  0  0  0  0  0
  181.2010   23.3030   50.0521 H   0  0  0  0  0  0  0  0  0  0  0  0
  178.8850   23.3320   49.7400 H   0  0  0  0  0  0  0  0  0  0  0  0
  177.1010   19.2490   45.5990 H   0  0  0  0  0  0  0  0  0  0  0  0
  179.4494   16.1956   46.2013 H   0  0  0  0  0  0  0  0  0  0  0  0
  179.7248   13.8597   45.7517 H   0  0  0  0  0  0  0  0  0  0  0  0
  178.7769   13.8848   44.2261 H   0  0  0  0  0  0  0  0  0  0  0  0
  180.4626   13.2641   44.2261 H   0  0  0  0  0  0  0  0  0  0  0  0
  1  2  2  0
  2  3  1  0
  3  4  2  0
  4  5  1  0
  5  6  2  0
  6  7  1  0
  7  8  1  0
  8  9  1  0
  9 10  2  0
 10 11  1  0
 11 12  2  0
 12 13  1  0
 13 14  1  0
 13 15  2  0
 15 16  1  0
 16 17  2  0
 16 18  1  0
 18 19  1  0
  6 20  1  0
 20 21  2  0
 21 22  1  0
 21  3  1  0
 18  7  2  0
 15  9  1  0
  1 23  1  0
  1 24  1  0
  2 25  1  0
  4 26  1  0
  5 27  1  0
 10 28  1  0
 11 29  1  0
 12 30  1  0
 14 31  1  0
 19 32  1  0
 20 33  1  0
 22 34  1  0
 22 35  1  0
 22 36  1  0
M  END
>  <meeko>  (2) 
{"is_sidechain": [false], "free_energy": -7.637, "intermolecular_energy": -8.845, "internal_energy": -0.338}

$$$$
cand_040_out
     RDKit          3D

 36 38  0  0  0  0  0  0  0  0999 V2000
  171.7060   24.2380   48.7760 C   0  0  0  0  0  0  0  0  0  0  0  0
  172.5620   23.9220   49.7560 C   0  0  0  0  0  0  0  0  0  0  0  0
  173.9360   23.4600   49.5140 C   0  0  0  0  0  0  0  0  0  0  0  0
  174.1570   22.1450   49.0810 C   0  0  0  0  0  0  0  0  0  0  0  0
  175.4490   21.6850   48.8100 C   0  0  0  0  0  0  0  0  0  0  0  0
  176.5540   22.5330   48.9500 C   0  0  0  0  0  0  0  0  0  0  0  0
  177.9140   22.0200   48.6800 C   0  0  0  0  0  0  0  0  0  0  0  0
  178.0690   21.5610   47.3770 O   0  0  0  0  0  0  0  0  0  0  0  0
  179.2850   21.0590   46.9920 C   0  0  0  0  0  0  0  0  0  0  0  0
  179.3910   20.5940   45.6790 C   0  0  0  0  0  0  0  0  0  0  0  0
  180.6030   20.0710   45.2220 C   0  0  0  0  0  0  0  0  0  0  0  0
  181.7070   20.0120   46.0760 C   0  0  0  0  0  0  0  0  0  0  0  0
  181.5970   20.4750   47.3850 C   0  0  0  0  0  0  0  0  0  0  0  0
  182.7170   20.3880   48.1660 O   0  0  0  0  0  0  0  0  0  0  0  0
  180.3850   20.9980   47.8420 C   0  0  0  0  0  0  0  0  0  0  0  0
  180.2270   21.4950   49.2090 C   0  0  0  0  0  0  0  0  0  0  0  0
  181.1540   21.4840   50.0170 O   0  0  0  0  0  0  0  0  0  0  0  0
  178.8990   22.0230   49.5980 C   0  0  0  0  0  0  0  0  0  0  0  0
  178.7640   22.5020   50.8870 O   0  0  0  0  0  0  0  0  0  0  0  0
  176.3320   23.8480   49.3830 C   0  0  0  0  0  0  0  0  0  0  0  0
  175.0360   24.3250   49.6650 C   0  0  0  0  0  0  0  0  0  0  0  0
  174.8700   25.7520   50.1140 C   0  0  0  0  0  0  0  0  0  0  0  0
  170.6893   24.5782   49.0222 H   0  0  0  0  0  0  0  0  0  0  0  0
  172.0195   24.1574   47.7247 H   0  0  0  0  0  0  0  0  0  0  0  0
  172.2187   24.0130   50.7971 H   0  0  0  0  0  0  0  0  0  0  0  0
  173.3015   21.4655   48.9527 H   0  0  0  0  0  0  0  0  0  0  0  0
  175.5990   20.6454   48.4832 H   0  0  0  0  0  0  0  0  0  0  0  0
  178.5218   20.6396   45.0063 H   0  0  0  0  0  0  0  0  0  0  0  0
  180.6882   19.7051   44.1882 H   0  0  0  0  0  0  0  0  0  0  0  0
  182.6613   19.6007   45.7153 H   0  0  0  0  0  0  0  0  0  0  0  0
  182.7970   20.9220   48.9320 H   0  0  0  0  0  0  0  0  0  0  0  0
  177.9140   22.5640   51.2780 H   0  0  0  0  0  0  0  0  0  0  0  0
  177.1908   24.5243   49.5057 H   0  0  0  0  0  0  0  0  0  0  0  0
  174.8653   25.7923   51.2132 H   0  0  0  0  0  0  0  0  0  0  0  0
  175.7038   26.3571   49.7284 H   0  0  0  0  0  0  0  0  0  0  0  0
  173.9196   26.1495   49.7284 H   0  0  0  0  0  0  0  0  0  0  0  0
  1  2  2  0
  2  3  1  0
  3  4  2  0
  4  5  1  0
  5  6  2  0
  6  7  1  0
  7  8  1  0
  8  9  1  0
  9 10  2  0
 10 11  1  0
 11 12  2  0
 12 13  1  0
 13 14  1  0
 13 15  2  0
 15 16  1  0
 16 17  2  0
 16 18  1  0
 18 19  1  0
  6 20  1  0
 20 21  2  0
 21 22  1  0
 21  3  1  0
 18  7  2  0
 15  9  1  0
  1 23  1  0
  1 24  1  0
  2 25  1  0
  4 26  1  0
  5 27  1  0
 10 28  1  0
 11 29  1  0
 12 30  1  0
 14 31  1  0
 19 32  1  0
 20 33  1  0
 22 34  1  0
 22 35  1  0
 22 36  1  0
M  END
>  <meeko>  (3) 
{"is_sidechain": [false], "free_energy": -7.524, "intermolecular_energy": -8.756, "internal_energy": -0.294}

$$$$
cand_040_out
     RDKit          3D

 36 38  0  0  0  0  0  0  0  0999 V2000
  178.8780   20.2890   46.1890 C   0  0  0  0  0  0  0  0  0  0  0  0
  177.6030   20.6830   46.0720 C   0  0  0  0  0  0  0  0  0  0  0  0
  176.8030   21.1860   47.1980 C   0  0  0  0  0  0  0  0  0  0  0  0
  176.9960   22.4980   47.6520 C   0  0  0  0  0  0  0  0  0  0  0  0
  176.2280   23.0170   48.6980 C   0  0  0  0  0  0  0  0  0  0  0  0
  175.2350   22.2430   49.3080 C   0  0  0  0  0  0  0  0  0  0  0  0
  174.4490   22.8020   50.4280 C   0  0  0  0  0  0  0  0  0  0  0  0
  175.2290   23.0980   51.5400 O   0  0  0  0  0  0  0  0  0  0  0  0
  174.6260   23.6250   52.6530 C   0  0  0  0  0  0  0  0  0  0  0  0
  175.4440   23.8910   53.7510 C   0  0  0  0  0  0  0  0  0  0  0  0
  174.8930   24.4300   54.9160 C   0  0  0  0  0  0  0  0  0  0  0  0
  173.5240   24.7020   54.9820 C   0  0  0  0  0  0  0  0  0  0  0  0
  172.7100   24.4350   53.8840 C   0  0  0  0  0  0  0  0  0  0  0  0
  171.3800   24.7260   54.0170 O   0  0  0  0  0  0  0  0  0  0  0  0
  173.2620   23.8950   52.7190 C   0  0  0  0  0  0  0  0  0  0  0  0
  172.4430   23.5990   51.5440 C   0  0  0  0  0  0  0  0  0  0  0  0
  171.2330   23.8180   51.5220 O   0  0  0  0  0  0  0  0  0  0  0  0
  173.1220   23.0210   50.3620 C   0  0  0  0  0  0  0  0  0  0  0  0
  172.3410   22.7580   49.2530 O   0  0  0  0  0  0  0  0  0  0  0  0
  175.0420   20.9290   48.8540 C   0  0  0  0  0  0  0  0  0  0  0  0
  175.8120   20.3910   47.8030 C   0  0  0  0  0  0  0  0  0  0  0  0
  175.5440   18.9780   47.3580 C   0  0  0  0  0  0  0  0  0  0  0  0
  179.4233   19.9217   45.3071 H   0  0  0  0  0  0  0  0  0  0  0  0
  179.3796   20.3327   47.1670 H   0  0  0  0  0  0  0  0  0  0  0  0
  177.1295   20.6272   45.0807 H   0  0  0  0  0  0  0  0  0  0  0  0
  177.7630   23.1282   47.1782 H   0  0  0  0  0  0  0  0  0  0  0  0
  176.4063   24.0453   49.0455 H   0  0  0  0  0  0  0  0  0  0  0  0
  176.5217   23.6766   53.6996 H   0  0  0  0  0  0  0  0  0  0  0  0
  175.5374   24.6405   55.7823 H   0  0  0  0  0  0  0  0  0  0  0  0
  173.0901   25.1262   55.8995 H   0  0  0  0  0  0  0  0  0  0  0  0
  171.0270   25.4970   53.6180 H   0  0  0  0  0  0  0  0  0  0  0  0
  172.6510   22.9820   48.3970 H   0  0  0  0  0  0  0  0  0  0  0  0
  174.2716   20.3042   49.3296 H   0  0  0  0  0  0  0  0  0  0  0  0
  175.4216   18.3327   48.2404 H   0  0  0  0  0  0  0  0  0  0  0  0
  174.6249   18.9518   46.7542 H   0  0  0  0  0  0  0  0  0  0  0  0
  176.3897   18.6171   46.7542 H   0  0  0  0  0  0  0  0  0  0  0  0
  1  2  2  0
  2  3  1  0
  3  4  2  0
  4  5  1  0
  5  6  2  0
  6  7  1  0
  7  8  1  0
  8  9  1  0
  9 10  2  0
 10 11  1  0
 11 12  2  0
 12 13  1  0
 13 14  1  0
 13 15  2  0
 15 16  1  0
 16 17  2  0
 16 18  1  0
 18 19  1  0
  6 20  1  0
 20 21  2  0
 21 22  1  0
 21  3  1  0
 18  7  2  0
 15  9  1  0
  1 23  1  0
  1 24  1  0
  2 25  1  0
  4 26  1  0
  5 27  1  0
 10 28  1  0
 11 29  1  0
 12 30  1  0
 14 31  1  0
 19 32  1  0
 20 33  1  0
 22 34  1  0
 22 35  1  0
 22 36  1  0
M  END
>  <meeko>  (4) 
{"is_sidechain": [false], "free_energy": -7.379, "intermolecular_energy": -8.503, "internal_energy": -0.377}

$$$$
cand_040_out
     RDKit          3D

 36 38  0  0  0  0  0  0  0  0999 V2000
  180.3490   18.4220   45.4580 C   0  0  0  0  0  0  0  0  0  0  0  0
  180.0910   19.7350   45.4750 C   0  0  0  0  0  0  0  0  0  0  0  0
  179.3260   20.3980   46.5420 C   0  0  0  0  0  0  0  0  0  0  0  0
  178.0010   20.0110   46.7860 C   0  0  0  0  0  0  0  0  0  0  0  0
  177.2590   20.5970   47.8150 C   0  0  0  0  0  0  0  0  0  0  0  0
  177.8270   21.5770   48.6370 C   0  0  0  0  0  0  0  0  0  0  0  0
  177.0170   22.2010   49.7050 C   0  0  0  0  0  0  0  0  0  0  0  0
  175.9460   22.9370   49.2100 O   0  0  0  0  0  0  0  0  0  0  0  0
  175.1110   23.5700   50.0940 C   0  0  0  0  0  0  0  0  0  0  0  0
  174.0580   24.3090   49.5530 C   0  0  0  0  0  0  0  0  0  0  0  0
  173.1700   24.9770   50.3980 C   0  0  0  0  0  0  0  0  0  0  0  0
  173.3340   24.9070   51.7840 C   0  0  0  0  0  0  0  0  0  0  0  0
  174.3850   24.1680   52.3200 C   0  0  0  0  0  0  0  0  0  0  0  0
  174.4870   24.1400   53.6840 O   0  0  0  0  0  0  0  0  0  0  0  0
  175.2740   23.5000   51.4740 C   0  0  0  0  0  0  0  0  0  0  0  0
  176.3920   22.7140   51.9970 C   0  0  0  0  0  0  0  0  0  0  0  0
  176.5980   22.5970   53.2040 O   0  0  0  0  0  0  0  0  0  0  0  0
  177.2820   22.0500   51.0160 C   0  0  0  0  0  0  0  0  0  0  0  0
  178.3260   21.2990   51.5210 O   0  0  0  0  0  0  0  0  0  0  0  0
  179.1520   21.9650   48.3930 C   0  0  0  0  0  0  0  0  0  0  0  0
  179.9120   21.3860   47.3570 C   0  0  0  0  0  0  0  0  0  0  0  0
  181.3330   21.8410   47.1570 C   0  0  0  0  0  0  0  0  0  0  0  0
  180.9276   17.9859   44.6304 H   0  0  0  0  0  0  0  0  0  0  0  0
  179.9824   17.7789   46.2716 H   0  0  0  0  0  0  0  0  0  0  0  0
  180.4713   20.3512   44.6469 H   0  0  0  0  0  0  0  0  0  0  0  0
  177.5387   19.2349   46.1584 H   0  0  0  0  0  0  0  0  0  0  0  0
  176.2174   20.2847   47.9807 H   0  0  0  0  0  0  0  0  0  0  0  0
  173.9279   24.3651   48.4622 H   0  0  0  0  0  0  0  0  0  0  0  0
  172.3397   25.5595   49.9721 H   0  0  0  0  0  0  0  0  0  0  0  0
  172.6347   25.4343   52.4495 H   0  0  0  0  0  0  0  0  0  0  0  0
  175.3260   24.0490   54.0910 H   0  0  0  0  0  0  0  0  0  0  0  0
  178.6650   21.4820   52.3760 H   0  0  0  0  0  0  0  0  0  0  0  0
  179.6094   22.7401   49.0255 H   0  0  0  0  0  0  0  0  0  0  0  0
  181.8103   21.9938   48.1362 H   0  0  0  0  0  0  0  0  0  0  0  0
  181.8874   21.0754   46.5943 H   0  0  0  0  0  0  0  0  0  0  0  0
  181.3396   22.7862   46.5943 H   0  0  0  0  0  0  0  0  0  0  0  0
  1  2  2  0
  2  3  1  0
  3  4  2  0
  4  5  1  0
  5  6  2  0
  6  7  1  0
  7  8  1  0
  8  9  1  0
  9 10  2  0
 10 11  1  0
 11 12  2  0
 12 13  1  0
 13 14  1  0
 13 15  2  0
 15 16  1  0
 16 17  2  0
 16 18  1  0
 18 19  1  0
  6 20  1  0
 20 21  2  0
 21 22  1  0
 21  3  1  0
 18  7  2  0
 15  9  1  0
  1 23  1  0
  1 24  1  0
  2 25  1  0
  4 26  1  0
  5 27  1  0
 10 28  1  0
 11 29  1  0
 12 30  1  0
 14 31  1  0
 19 32  1  0
 20 33  1  0
 22 34  1  0
 22 35  1  0
 22 36  1  0
M  END
>  <meeko>  (5) 
{"is_sidechain": [false], "free_energy": -7.317, "intermolecular_energy": -8.414, "internal_energy": -0.393}

$$$$
cand_040_out
     RDKit          3D

 36 38  0  0  0  0  0  0  0  0999 V2000
  176.7170   23.7870   48.6280 C   0  0  0  0  0  0  0  0  0  0  0  0
  176.7100   22.4700   48.8680 C   0  0  0  0  0  0  0  0  0  0  0  0
  177.4410   21.4930   48.0480 C   0  0  0  0  0  0  0  0  0  0  0  0
  178.8370   21.4080   48.1520 C   0  0  0  0  0  0  0  0  0  0  0  0
  179.5580   20.4660   47.4120 C   0  0  0  0  0  0  0  0  0  0  0  0
  178.9000   19.5730   46.5580 C   0  0  0  0  0  0  0  0  0  0  0  0
  179.6820   18.6010   45.7660 C   0  0  0  0  0  0  0  0  0  0  0  0
  179.1630   17.3120   45.8270 O   0  0  0  0  0  0  0  0  0  0  0  0
  179.7920   16.3100   45.1360 C   0  0  0  0  0  0  0  0  0  0  0  0
  179.2450   15.0290   45.2390 C   0  0  0  0  0  0  0  0  0  0  0  0
  179.8370   13.9630   44.5590 C   0  0  0  0  0  0  0  0  0  0  0  0
  180.9750   14.1760   43.7770 C   0  0  0  0  0  0  0  0  0  0  0  0
  181.5180   15.4540   43.6770 C   0  0  0  0  0  0  0  0  0  0  0  0
  182.6310   15.5920   42.8930 O   0  0  0  0  0  0  0  0  0  0  0  0
  180.9260   16.5210   44.3580 C   0  0  0  0  0  0  0  0  0  0  0  0
  181.4650   17.8800   44.2800 C   0  0  0  0  0  0  0  0  0  0  0  0
  182.4580   18.1480   43.6060 O   0  0  0  0  0  0  0  0  0  0  0  0
  180.7680   18.9390   45.0450 C   0  0  0  0  0  0  0  0  0  0  0  0
  181.2770   20.2200   44.9540 O   0  0  0  0  0  0  0  0  0  0  0  0
  177.5040   19.6580   46.4530 C   0  0  0  0  0  0  0  0  0  0  0  0
  176.7640   20.6050   47.1900 C   0  0  0  0  0  0  0  0  0  0  0  0
  175.2670   20.6330   47.0390 C   0  0  0  0  0  0  0  0  0  0  0  0
  176.1489   24.4677   49.2790 H   0  0  0  0  0  0  0  0  0  0  0  0
  177.2909   24.1884   47.7797 H   0  0  0  0  0  0  0  0  0  0  0  0
  176.1266   22.0994   49.7238 H   0  0  0  0  0  0  0  0  0  0  0  0
  179.3727   22.0927   48.8259 H   0  0  0  0  0  0  0  0  0  0  0  0
  180.6536   20.4262   47.5018 H   0  0  0  0  0  0  0  0  0  0  0  0
  178.3493   14.8603   45.8548 H   0  0  0  0  0  0  0  0  0  0  0  0
  179.4068   12.9538   44.6391 H   0  0  0  0  0  0  0  0  0  0  0  0
  181.4410   13.3357   43.2415 H   0  0  0  0  0  0  0  0  0  0  0  0
  183.2070   14.8640   42.7640 H   0  0  0  0  0  0  0  0  0  0  0  0
  182.0460   20.3840   44.4440 H   0  0  0  0  0  0  0  0  0  0  0  0
  176.9736   18.9690   45.7792 H   0  0  0  0  0  0  0  0  0  0  0  0
  174.7982   20.6418   48.0341 H   0  0  0  0  0  0  0  0  0  0  0  0
  174.9711   21.5368   46.4863 H   0  0  0  0  0  0  0  0  0  0  0  0
  174.9375   19.7409   46.4863 H   0  0  0  0  0  0  0  0  0  0  0  0
  1  2  2  0
  2  3  1  0
  3  4  2  0
  4  5  1  0
  5  6  2  0
  6  7  1  0
  7  8  1  0
  8  9  1  0
  9 10  2  0
 10 11  1  0
 11 12  2  0
 12 13  1  0
 13 14  1  0
 13 15  2  0
 15 16  1  0
 16 17  2  0
 16 18  1  0
 18 19  1  0
  6 20  1  0
 20 21  2  0
 21 22  1  0
 21  3  1  0
 18  7  2  0
 15  9  1  0
  1 23  1  0
  1 24  1  0
  2 25  1  0
  4 26  1  0
  5 27  1  0
 10 28  1  0
 11 29  1  0
 12 30  1  0
 14 31  1  0
 19 32  1  0
 20 33  1  0
 22 34  1  0
 22 35  1  0
 22 36  1  0
M  END
>  <meeko>  (6) 
{"is_sidechain": [false], "free_energy": -7.265, "intermolecular_energy": -8.582, "internal_energy": -0.163}

$$$$
cand_040_out
     RDKit          3D

 36 38  0  0  0  0  0  0  0  0999 V2000
  175.9460   18.8880   46.8400 C   0  0  0  0  0  0  0  0  0  0  0  0
  176.6590   19.8510   46.2430 C   0  0  0  0  0  0  0  0  0  0  0  0
  177.9270   20.3700   46.7760 C   0  0  0  0  0  0  0  0  0  0  0  0
  179.1060   19.6320   46.6000 C   0  0  0  0  0  0  0  0  0  0  0  0
  180.3330   20.1140   47.0640 C   0  0  0  0  0  0  0  0  0  0  0  0
  180.4160   21.3560   47.7050 C   0  0  0  0  0  0  0  0  0  0  0  0
  181.7190   21.8370   48.2100 C   0  0  0  0  0  0  0  0  0  0  0  0
  182.5170   22.3840   47.2110 O   0  0  0  0  0  0  0  0  0  0  0  0
  183.7550   22.8710   47.5420 C   0  0  0  0  0  0  0  0  0  0  0  0
  184.5270   23.3960   46.5050 C   0  0  0  0  0  0  0  0  0  0  0  0
  185.7970   23.9100   46.7750 C   0  0  0  0  0  0  0  0  0  0  0  0
  186.2950   23.8990   48.0800 C   0  0  0  0  0  0  0  0  0  0  0  0
  185.5220   23.3740   49.1120 C   0  0  0  0  0  0  0  0  0  0  0  0
  186.0700   23.3950   50.3650 O   0  0  0  0  0  0  0  0  0  0  0  0
  184.2510   22.8590   48.8420 C   0  0  0  0  0  0  0  0  0  0  0  0
  183.4070   22.2980   49.8970 C   0  0  0  0  0  0  0  0  0  0  0  0
  183.7710   22.2600   51.0710 O   0  0  0  0  0  0  0  0  0  0  0  0
  182.0790   21.7710   49.5060 C   0  0  0  0  0  0  0  0  0  0  0  0
  181.2850   21.2560   50.5120 O   0  0  0  0  0  0  0  0  0  0  0  0
  179.2370   22.0940   47.8820 C   0  0  0  0  0  0  0  0  0  0  0  0
  177.9920   21.6190   47.4230 C   0  0  0  0  0  0  0  0  0  0  0  0
  176.7680   22.4680   47.6350 C   0  0  0  0  0  0  0  0  0  0  0  0
  175.0035   18.5424   46.3902 H   0  0  0  0  0  0  0  0  0  0  0  0
  176.3026   18.4423   47.7803 H   0  0  0  0  0  0  0  0  0  0  0  0
  176.2758   20.2765   45.3038 H   0  0  0  0  0  0  0  0  0  0  0  0
  179.0646   18.6588   46.0889 H   0  0  0  0  0  0  0  0  0  0  0  0
  181.2427   19.5116   46.9242 H   0  0  0  0  0  0  0  0  0  0  0  0
  184.1360   23.4050   45.4769 H   0  0  0  0  0  0  0  0  0  0  0  0
  186.4064   24.3244   45.9584 H   0  0  0  0  0  0  0  0  0  0  0  0
  187.2955   24.3042   48.2918 H   0  0  0  0  0  0  0  0  0  0  0  0
  185.6530   22.9340   51.0670 H   0  0  0  0  0  0  0  0  0  0  0  0
  181.4760   20.4130   50.8750 H   0  0  0  0  0  0  0  0  0  0  0  0
  179.2849   23.0676   48.3916 H   0  0  0  0  0  0  0  0  0  0  0  0
  176.5898   22.5916   48.7134 H   0  0  0  0  0  0  0  0  0  0  0  0
  176.9216   23.4545   47.1733 H   0  0  0  0  0  0  0  0  0  0  0  0
  175.8978   21.9785   47.1733 H   0  0  0  0  0  0  0  0  0  0  0  0
  1  2  2  0
  2  3  1  0
  3  4  2  0
  4  5  1  0
  5  6  2  0
  6  7  1  0
  7  8  1  0
  8  9  1  0
  9 10  2  0
 10 11  1  0
 11 12  2  0
 12 13  1  0
 13 14  1  0
 13 15  2  0
 15 16  1  0
 16 17  2  0
 16 18  1  0
 18 19  1  0
  6 20  1  0
 20 21  2  0
 21 22  1  0
 21  3  1  0
 18  7  2  0
 15  9  1  0
  1 23  1  0
  1 24  1  0
  2 25  1  0
  4 26  1  0
  5 27  1  0
 10 28  1  0
 11 29  1  0
 12 30  1  0
 14 31  1  0
 19 32  1  0
 20 33  1  0
 22 34  1  0
 22 35  1  0
 22 36  1  0
M  END
>  <meeko>  (7) 
{"is_sidechain": [false], "free_energy": -7.165, "intermolecular_energy": -8.18, "internal_energy": -0.448}

$$$$
cand_040_out
     RDKit          3D

 36 38  0  0  0  0  0  0  0  0999 V2000
  186.0440   23.1360   48.7540 C   0  0  0  0  0  0  0  0  0  0  0  0
  185.0340   23.4540   47.9350 C   0  0  0  0  0  0  0  0  0  0  0  0
  183.6350   23.0790   48.1900 C   0  0  0  0  0  0  0  0  0  0  0  0
  183.3470   21.8400   48.7790 C   0  0  0  0  0  0  0  0  0  0  0  0
  182.0310   21.4680   49.0650 C   0  0  0  0  0  0  0  0  0  0  0  0
  180.9670   22.3320   48.7840 C   0  0  0  0  0  0  0  0  0  0  0  0
  179.5800   21.9110   49.0730 C   0  0  0  0  0  0  0  0  0  0  0  0
  178.8800   21.5360   47.9320 O   0  0  0  0  0  0  0  0  0  0  0  0
  177.5800   21.1210   48.0570 C   0  0  0  0  0  0  0  0  0  0  0  0
  176.9110   20.7690   46.8830 C   0  0  0  0  0  0  0  0  0  0  0  0
  175.5850   20.3370   46.9400 C   0  0  0  0  0  0  0  0  0  0  0  0
  174.9260   20.2570   48.1700 C   0  0  0  0  0  0  0  0  0  0  0  0
  175.5960   20.6100   49.3390 C   0  0  0  0  0  0  0  0  0  0  0  0
  174.8930   20.5070   50.5070 O   0  0  0  0  0  0  0  0  0  0  0  0
  176.9240   21.0420   49.2810 C   0  0  0  0  0  0  0  0  0  0  0  0
  177.6630   21.4220   50.4850 C   0  0  0  0  0  0  0  0  0  0  0  0
  177.1550   21.3710   51.6040 O   0  0  0  0  0  0  0  0  0  0  0  0
  179.0630   21.8750   50.3160 C   0  0  0  0  0  0  0  0  0  0  0  0
  179.7570   22.2180   51.4610 O   0  0  0  0  0  0  0  0  0  0  0  0
  181.2540   23.5730   48.1950 C   0  0  0  0  0  0  0  0  0  0  0  0
  182.5760   23.9600   47.8970 C   0  0  0  0  0  0  0  0  0  0  0  0
  182.8140   25.3100   47.2760 C   0  0  0  0  0  0  0  0  0  0  0  0
  187.0703   23.4459   48.5077 H   0  0  0  0  0  0  0  0  0  0  0  0
  185.8477   22.5648   49.6733 H   0  0  0  0  0  0  0  0  0  0  0  0
  185.2624   24.0258   47.0235 H   0  0  0  0  0  0  0  0  0  0  0  0
  184.1694   21.1503   49.0196 H   0  0  0  0  0  0  0  0  0  0  0  0
  181.8292   20.4852   49.5160 H   0  0  0  0  0  0  0  0  0  0  0  0
  177.4284   20.8321   45.9143 H   0  0  0  0  0  0  0  0  0  0  0  0
  175.0578   20.0591   46.0154 H   0  0  0  0  0  0  0  0  0  0  0  0
  173.8811   19.9162   48.2147 H   0  0  0  0  0  0  0  0  0  0  0  0
  174.5870   21.2800   50.9410 H   0  0  0  0  0  0  0  0  0  0  0  0
  179.2900   22.4640   52.2360 H   0  0  0  0  0  0  0  0  0  0  0  0
  180.4276   24.2600   47.9603 H   0  0  0  0  0  0  0  0  0  0  0  0
  182.9463   26.0604   48.0694 H   0  0  0  0  0  0  0  0  0  0  0  0
  183.7193   25.2723   46.6524 H   0  0  0  0  0  0  0  0  0  0  0  0
  181.9503   25.5841   46.6524 H   0  0  0  0  0  0  0  0  0  0  0  0
  1  2  2  0
  2  3  1  0
  3  4  2  0
  4  5  1  0
  5  6  2  0
  6  7  1  0
  7  8  1  0
  8  9  1  0
  9 10  2  0
 10 11  1  0
 11 12  2  0
 12 13  1  0
 13 14  1  0
 13 15  2  0
 15 16  1  0
 16 17  2  0
 16 18  1  0
 18 19  1  0
  6 20  1  0
 20 21  2  0
 21 22  1  0
 21  3  1  0
 18  7  2  0
 15  9  1  0
  1 23  1  0
  1 24  1  0
  2 25  1  0
  4 26  1  0
  5 27  1  0
 10 28  1  0
 11 29  1  0
 12 30  1  0
 14 31  1  0
 19 32  1  0
 20 33  1  0
 22 34  1  0
 22 35  1  0
 22 36  1  0
M  END
>  <meeko>  (8) 
{"is_sidechain": [false], "free_energy": -7.16, "intermolecular_energy": -8.198, "internal_energy": -0.424}

$$$$
cand_040_out
     RDKit          3D

 36 38  0  0  0  0  0  0  0  0999 V2000
  179.2410   20.2900   45.7550 C   0  0  0  0  0  0  0  0  0  0  0  0
  178.0650   19.8450   46.2140 C   0  0  0  0  0  0  0  0  0  0  0  0
  177.2240   20.5990   47.1540 C   0  0  0  0  0  0  0  0  0  0  0  0
  177.5990   21.8960   47.5310 C   0  0  0  0  0  0  0  0  0  0  0  0
  176.8030   22.6530   48.3970 C   0  0  0  0  0  0  0  0  0  0  0  0
  175.6020   22.1370   48.8970 C   0  0  0  0  0  0  0  0  0  0  0  0
  174.7860   22.9430   49.8290 C   0  0  0  0  0  0  0  0  0  0  0  0
  173.7680   23.6420   49.1900 O   0  0  0  0  0  0  0  0  0  0  0  0
  172.9330   24.4300   49.9390 C   0  0  0  0  0  0  0  0  0  0  0  0
  171.9350   25.1260   49.2540 C   0  0  0  0  0  0  0  0  0  0  0  0
  171.0500   25.9460   49.9570 C   0  0  0  0  0  0  0  0  0  0  0  0
  171.1630   26.0710   51.3440 C   0  0  0  0  0  0  0  0  0  0  0  0
  172.1600   25.3770   52.0240 C   0  0  0  0  0  0  0  0  0  0  0  0
  172.2130   25.5440   53.3810 O   0  0  0  0  0  0  0  0  0  0  0  0
  173.0460   24.5560   51.3200 C   0  0  0  0  0  0  0  0  0  0  0  0
  174.1080   23.8100   51.9960 C   0  0  0  0  0  0  0  0  0  0  0  0
  174.2660   23.8620   53.2140 O   0  0  0  0  0  0  0  0  0  0  0  0
  174.9990   22.9740   51.1580 C   0  0  0  0  0  0  0  0  0  0  0  0
  175.9890   22.2630   51.8080 O   0  0  0  0  0  0  0  0  0  0  0  0
  175.2260   20.8390   48.5200 C   0  0  0  0  0  0  0  0  0  0  0  0
  176.0210   20.0630   47.6520 C   0  0  0  0  0  0  0  0  0  0  0  0
  175.5520   18.6820   47.2790 C   0  0  0  0  0  0  0  0  0  0  0  0
  179.8244   19.6774   45.0519 H   0  0  0  0  0  0  0  0  0  0  0  0
  179.6240   21.2683   46.0809 H   0  0  0  0  0  0  0  0  0  0  0  0
  177.7093   18.8628   45.8693 H   0  0  0  0  0  0  0  0  0  0  0  0
  178.5334   22.3250   47.1399 H   0  0  0  0  0  0  0  0  0  0  0  0
  177.1242   23.6640   48.6879 H   0  0  0  0  0  0  0  0  0  0  0  0
  171.8461   25.0285   48.1620 H   0  0  0  0  0  0  0  0  0  0  0  0
  170.2630   26.4941   49.4183 H   0  0  0  0  0  0  0  0  0  0  0  0
  170.4654   26.7166   51.8977 H   0  0  0  0  0  0  0  0  0  0  0  0
  171.5830   25.1210   53.9310 H   0  0  0  0  0  0  0  0  0  0  0  0
  176.2390   22.4970   52.6810 H   0  0  0  0  0  0  0  0  0  0  0  0
  174.2886   20.4167   48.9110 H   0  0  0  0  0  0  0  0  0  0  0  0
  175.3551   18.1023   48.1929 H   0  0  0  0  0  0  0  0  0  0  0  0
  174.6286   18.7561   46.6858 H   0  0  0  0  0  0  0  0  0  0  0  0
  176.3295   18.1785   46.6858 H   0  0  0  0  0  0  0  0  0  0  0  0
  1  2  2  0
  2  3  1  0
  3  4  2  0
  4  5  1  0
  5  6  2  0
  6  7  1  0
  7  8  1  0
  8  9  1  0
  9 10  2  0
 10 11  1  0
 11 12  2  0
 12 13  1  0
 13 14  1  0
 13 15  2  0
 15 16  1  0
 16 17  2  0
 16 18  1  0
 18 19  1  0
  6 20  1  0
 20 21  2  0
 21 22  1  0
 21  3  1  0
 18  7  2  0
 15  9  1  0
  1 23  1  0
  1 24  1  0
  2 25  1  0
  4 26  1  0
  5 27  1  0
 10 28  1  0
 11 29  1  0
 12 30  1  0
 14 31  1  0
 19 32  1  0
 20 33  1  0
 22 34  1  0
 22 35  1  0
 22 36  1  0
M  END
>  <meeko>  (9) 
{"is_sidechain": [false], "free_energy": -7.003, "intermolecular_energy": -7.98, "internal_energy": -0.458}

$$$$
