cand_017_out
     RDKit          3D

 38 40  0  0  0  0  0  0  0  0999 V2000
  178.8970   13.5880   45.0020 C   0  0  0  0  0  0  0  0  0  0  0  0
  180.3560   14.0210   45.0220 C   0  0  0  0  0  0  0  0  0  0  0  0
  180.5270   15.4580   44.5810 C   0  0  0  0  0  0  0  0  0  0  0  0
  180.0410   16.4750   45.4290 C   0  0  0  0  0  0  0  0  0  0  0  0
  180.1630   17.8320   45.0990 C   0  0  0  0  0  0  0  0  0  0  0  0
  179.6760   18.8980   46.0010 C   0  0  0  0  0  0  0  0  0  0  0  0
  178.2940   18.8900   46.1490 O   0  0  0  0  0  0  0  0  0  0  0  0
  177.7090   19.8290   46.9600 C   0  0  0  0  0  0  0  0  0  0  0  0
  176.3180   19.7950   47.0670 C   0  0  0  0  0  0  0  0  0  0  0  0
  175.6590   20.7220   47.8790 C   0  0  0  0  0  0  0  0  0  0  0  0
  176.3900   21.6810   48.5800 C   0  0  0  0  0  0  0  0  0  0  0  0
  177.7780   21.7130   48.4720 C   0  0  0  0  0  0  0  0  0  0  0  0
  178.4320   22.6790   49.1870 O   0  0  0  0  0  0  0  0  0  0  0  0
  178.4370   20.7860   47.6600 C   0  0  0  0  0  0  0  0  0  0  0  0
  179.8930   20.7850   47.5160 C   0  0  0  0  0  0  0  0  0  0  0  0
  180.6070   21.5930   48.1080 O   0  0  0  0  0  0  0  0  0  0  0  0
  180.4940   19.7650   46.6260 C   0  0  0  0  0  0  0  0  0  0  0  0
  181.8720   19.7650   46.5080 O   0  0  0  0  0  0  0  0  0  0  0  0
  180.8030   18.1690   43.9030 C   0  0  0  0  0  0  0  0  0  0  0  0
  181.2940   17.1760   43.0520 C   0  0  0  0  0  0  0  0  0  0  0  0
  181.1680   15.8140   43.3750 C   0  0  0  0  0  0  0  0  0  0  0  0
  181.6980   14.7810   42.4070 C   0  0  0  0  0  0  0  0  0  0  0  0
  183.0560   14.7960   42.2950 F   0  0  0  0  0  0  0  0  0  0  0  0
  181.2300   14.9360   41.1340 F   0  0  0  0  0  0  0  0  0  0  0  0
  178.5325   13.4798   46.0342 H   0  0  0  0  0  0  0  0  0  0  0  0
  178.2965   14.3467   44.4787 H   0  0  0  0  0  0  0  0  0  0  0  0
  178.8076   12.6246   44.4787 H   0  0  0  0  0  0  0  0  0  0  0  0
  180.7438   13.9153   46.0459 H   0  0  0  0  0  0  0  0  0  0  0  0
  180.9097   13.3817   44.3187 H   0  0  0  0  0  0  0  0  0  0  0  0
  179.5532   16.1958   46.3746 H   0  0  0  0  0  0  0  0  0  0  0  0
  175.7412   19.0397   46.5131 H   0  0  0  0  0  0  0  0  0  0  0  0
  174.5627   20.6953   47.9654 H   0  0  0  0  0  0  0  0  0  0  0  0
  175.8705   22.4115   49.2176 H   0  0  0  0  0  0  0  0  0  0  0  0
  177.9910   23.1260   49.8820 H   0  0  0  0  0  0  0  0  0  0  0  0
  182.4040   19.5300   47.2410 H   0  0  0  0  0  0  0  0  0  0  0  0
  180.9213   19.2277   43.6289 H   0  0  0  0  0  0  0  0  0  0  0  0
  181.7879   17.4651   42.1126 H   0  0  0  0  0  0  0  0  0  0  0  0
  181.3435   13.8362   42.8448 H   0  0  0  0  0  0  0  0  0  0  0  0
  1  2  1  0
  2  3  1  0
  3  4  2  0
  4  5  1  0
  5  6  1  0
  6  7  1  0
  7  8  1  0
  8  9  2  0
  9 10  1  0
 10 11  2  0
 11 12  1  0
 12 13  1  0
 12 14  2  0
 14 15  1  0
 15 16  2  0
 15 17  1  0
 17 18  1  0
  5 19  2  0
 19 20  1  0
 20 21  2  0
 21 22  1  0
 22 23  1  0
 22 24  1  0
 21  3  1  0
 17  6  2  0
 14  8  1  0
  1 25  1  0
  1 26  1  0
  1 27  1  0
  2 28  1  0
  2 29  1  0
  4 30  1  0
  9 31  1  0
 10 32  1  0
 11 33  1  0
 13 34  1  0
 18 35  1  0
 19 36  1  0
 20 37  1  0
 22 38  1  0
M  END
>  <meeko>  (1) 
{"is_sidechain": [false], "free_energy": -7.737, "intermolecular_energy": -9.547, "internal_energy": -0.541}

$$$$
cand_017_out
     RDKit          3D

 38 40  0  0  0  0  0  0  0  0999 V2000
  175.5240   18.3840   46.9310 C   0  0  0  0  0  0  0  0  0  0  0  0
  176.7990   18.8160   46.2200 C   0  0  0  0  0  0  0  0  0  0  0  0
  177.5640   19.8540   47.0110 C   0  0  0  0  0  0  0  0  0  0  0  0
  176.8700   20.5790   48.0020 C   0  0  0  0  0  0  0  0  0  0  0  0
  177.5040   21.5540   48.7840 C   0  0  0  0  0  0  0  0  0  0  0  0
  176.7810   22.2950   49.8390 C   0  0  0  0  0  0  0  0  0  0  0  0
  175.7890   23.1260   49.3320 O   0  0  0  0  0  0  0  0  0  0  0  0
  175.0400   23.8740   50.2050 C   0  0  0  0  0  0  0  0  0  0  0  0
  174.0670   24.7070   49.6520 C   0  0  0  0  0  0  0  0  0  0  0  0
  173.2670   25.4930   50.4860 C   0  0  0  0  0  0  0  0  0  0  0  0
  173.4430   25.4470   51.8700 C   0  0  0  0  0  0  0  0  0  0  0  0
  174.4150   24.6150   52.4190 C   0  0  0  0  0  0  0  0  0  0  0  0
  174.5320   24.6180   53.7820 O   0  0  0  0  0  0  0  0  0  0  0  0
  175.2140   23.8290   51.5850 C   0  0  0  0  0  0  0  0  0  0  0  0
  176.2480   22.9420   52.1200 C   0  0  0  0  0  0  0  0  0  0  0  0
  176.4580   22.8400   53.3280 O   0  0  0  0  0  0  0  0  0  0  0  0
  177.0460   22.1560   51.1510 C   0  0  0  0  0  0  0  0  0  0  0  0
  178.0110   21.3110   51.6690 O   0  0  0  0  0  0  0  0  0  0  0  0
  178.8660   21.7880   48.5760 C   0  0  0  0  0  0  0  0  0  0  0  0
  179.5720   21.0770   47.6020 C   0  0  0  0  0  0  0  0  0  0  0  0
  178.9390   20.1030   46.8110 C   0  0  0  0  0  0  0  0  0  0  0  0
  179.7450   19.3800   45.7560 C   0  0  0  0  0  0  0  0  0  0  0  0
  180.9280   18.8940   46.2260 F   0  0  0  0  0  0  0  0  0  0  0  0
  180.0770   20.1660   44.6910 F   0  0  0  0  0  0  0  0  0  0  0  0
  175.6757   18.4354   48.0193 H   0  0  0  0  0  0  0  0  0  0  0  0
  174.6993   19.0529   46.6437 H   0  0  0  0  0  0  0  0  0  0  0  0
  175.2758   17.3516   46.6437 H   0  0  0  0  0  0  0  0  0  0  0  0
  177.4413   17.9348   46.0757 H   0  0  0  0  0  0  0  0  0  0  0  0
  176.5159   19.2636   45.2559 H   0  0  0  0  0  0  0  0  0  0  0  0
  175.8018   20.3735   48.1656 H   0  0  0  0  0  0  0  0  0  0  0  0
  173.9297   24.7451   48.5613 H   0  0  0  0  0  0  0  0  0  0  0  0
  172.4979   26.1485   50.0514 H   0  0  0  0  0  0  0  0  0  0  0  0
  172.8146   26.0673   52.5260 H   0  0  0  0  0  0  0  0  0  0  0  0
  173.7790   24.7720   54.3170 H   0  0  0  0  0  0  0  0  0  0  0  0
  178.8760   21.3120   51.3080 H   0  0  0  0  0  0  0  0  0  0  0  0
  179.3880   22.5402   49.1857 H   0  0  0  0  0  0  0  0  0  0  0  0
  180.6420   21.2833   47.4518 H   0  0  0  0  0  0  0  0  0  0  0  0
  179.0706   18.5666   45.4500 H   0  0  0  0  0  0  0  0  0  0  0  0
  1  2  1  0
  2  3  1  0
  3  4  2  0
  4  5  1  0
  5  6  1  0
  6  7  1  0
  7  8  1  0
  8  9  2  0
  9 10  1  0
 10 11  2  0
 11 12  1  0
 12 13  1  0
 12 14  2  0
 14 15  1  0
 15 16  2  0
 15 17  1  0
 17 18  1  0
  5 19  2  0
 19 20  1  0
 20 21  2  0
 21 22  1  0
 22 23  1  0
 22 24  1  0
 21  3  1  0
 17  6  2  0
 14  8  1  0
  1 25  1  0
  1 26  1  0
  1 27  1  0
  2 28  1  0
  2 29  1  0
  4 30  1  0
  9 31  1  0
 10 32  1  0
 11 33  1  0
 13 34  1  0
 18 35  1  0
 19 36  1  0
 20 37  1  0
 22 38  1  0
M  END
>  <meeko>  (2) 
{"is_sidechain": [false], "free_energy": -7.525, "intermolecular_energy": -9.294, "internal_energy": -0.531}

$$$$
cand_017_out
     RDKit          3D

 38 40  0  0  0  0  0  0  0  0999 V2000
  178.9370   13.6730   45.0660 C   0  0  0  0  0  0  0  0  0  0  0  0
  180.4120   14.0110   44.8970 C   0  0  0  0  0  0  0  0  0  0  0  0
  180.6140   15.3910   44.3120 C   0  0  0  0  0  0  0  0  0  0  0  0
  180.4170   16.5050   45.1540 C   0  0  0  0  0  0  0  0  0  0  0  0
  180.5880   17.8180   44.6940 C   0  0  0  0  0  0  0  0  0  0  0  0
  180.4050   18.9840   45.5850 C   0  0  0  0  0  0  0  0  0  0  0  0
  181.5440   19.7740   45.6800 O   0  0  0  0  0  0  0  0  0  0  0  0
  181.5110   20.8900   46.4760 C   0  0  0  0  0  0  0  0  0  0  0  0
  182.6810   21.6470   46.5560 C   0  0  0  0  0  0  0  0  0  0  0  0
  182.7150   22.7980   47.3480 C   0  0  0  0  0  0  0  0  0  0  0  0
  181.5800   23.1900   48.0590 C   0  0  0  0  0  0  0  0  0  0  0  0
  180.4130   22.4340   47.9770 C   0  0  0  0  0  0  0  0  0  0  0  0
  179.3380   22.8770   48.6990 O   0  0  0  0  0  0  0  0  0  0  0  0
  180.3800   21.2840   47.1860 C   0  0  0  0  0  0  0  0  0  0  0  0
  179.1760   20.4600   47.0730 C   0  0  0  0  0  0  0  0  0  0  0  0
  178.1340   20.7440   47.6620 O   0  0  0  0  0  0  0  0  0  0  0  0
  179.2470   19.2550   46.2140 C   0  0  0  0  0  0  0  0  0  0  0  0
  178.0990   18.4910   46.1040 O   0  0  0  0  0  0  0  0  0  0  0  0
  180.9840   18.0100   43.3670 C   0  0  0  0  0  0  0  0  0  0  0  0
  181.1880   16.9180   42.5190 C   0  0  0  0  0  0  0  0  0  0  0  0
  181.0110   15.6000   42.9740 C   0  0  0  0  0  0  0  0  0  0  0  0
  181.2230   14.4580   42.0070 C   0  0  0  0  0  0  0  0  0  0  0  0
  182.5390   14.2010   41.7610 F   0  0  0  0  0  0  0  0  0  0  0  0
  180.6630   14.6710   40.7800 F   0  0  0  0  0  0  0  0  0  0  0  0
  178.6940   13.6173   46.1374 H   0  0  0  0  0  0  0  0  0  0  0  0
  178.3251   14.4542   44.5914 H   0  0  0  0  0  0  0  0  0  0  0  0
  178.7263   12.7033   44.5914 H   0  0  0  0  0  0  0  0  0  0  0  0
  180.9013   13.9675   45.8812 H   0  0  0  0  0  0  0  0  0  0  0  0
  180.8504   13.2799   44.2018 H   0  0  0  0  0  0  0  0  0  0  0  0
  180.1211   16.3390   46.2004 H   0  0  0  0  0  0  0  0  0  0  0  0
  183.5758   21.3378   45.9960 H   0  0  0  0  0  0  0  0  0  0  0  0
  183.6367   23.3951   47.4109 H   0  0  0  0  0  0  0  0  0  0  0  0
  181.6069   24.0951   48.6836 H   0  0  0  0  0  0  0  0  0  0  0  0
  179.3400   22.8070   49.6330 H   0  0  0  0  0  0  0  0  0  0  0  0
  178.0800   17.6230   46.4540 H   0  0  0  0  0  0  0  0  0  0  0  0
  181.1365   19.0308   42.9866 H   0  0  0  0  0  0  0  0  0  0  0  0
  181.4926   17.0932   41.4766 H   0  0  0  0  0  0  0  0  0  0  0  0
  180.7386   13.6139   42.5197 H   0  0  0  0  0  0  0  0  0  0  0  0
  1  2  1  0
  2  3  1  0
  3  4  2  0
  4  5  1  0
  5  6  1  0
  6  7  1  0
  7  8  1  0
  8  9  2  0
  9 10  1  0
 10 11  2  0
 11 12  1  0
 12 13  1  0
 12 14  2  0
 14 15  1  0
 15 16  2  0
 15 17  1  0
 17 18  1  0
  5 19  2  0
 19 20  1  0
 20 21  2  0
 21 22  1  0
 22 23  1  0
 22 24  1  0
 21  3  1  0
 17  6  2  0
 14  8  1  0
  1 25  1  0
  1 26  1  0
  1 27  1  0
  2 28  1  0
  2 29  1  0
  4 30  1  0
  9 31  1  0
 10 32  1  0
 11 33  1  0
 13 34  1  0
 18 35  1  0
 19 36  1  0
 20 37  1  0
 22 38  1  0
M  END
>  <meeko>  (3) 
{"is_sidechain": [false], "free_energy": -7.486, "intermolecular_energy": -9.268, "internal_energy": -0.51}

$$$$
cand_017_out
     RDKit          3D

 38 40  0  0  0  0  0  0  0  0999 V2000
  175.0840   18.6450   46.8890 C   0  0  0  0  0  0  0  0  0  0  0  0
  175.9930   18.9610   48.0680 C   0  0  0  0  0  0  0  0  0  0  0  0
  176.0720   20.4470   48.3420 C   0  0  0  0  0  0  0  0  0  0  0  0
  175.2310   20.9840   49.3390 C   0  0  0  0  0  0  0  0  0  0  0  0
  175.2440   22.3480   49.6600 C   0  0  0  0  0  0  0  0  0  0  0  0
  174.3800   22.9050   50.7220 C   0  0  0  0  0  0  0  0  0  0  0  0
  175.0870   23.2500   51.8680 O   0  0  0  0  0  0  0  0  0  0  0  0
  174.4050   23.7790   52.9330 C   0  0  0  0  0  0  0  0  0  0  0  0
  175.1520   24.0960   54.0690 C   0  0  0  0  0  0  0  0  0  0  0  0
  174.5190   24.6410   55.1890 C   0  0  0  0  0  0  0  0  0  0  0  0
  173.1420   24.8680   55.1730 C   0  0  0  0  0  0  0  0  0  0  0  0
  172.3990   24.5520   54.0380 C   0  0  0  0  0  0  0  0  0  0  0  0
  171.0550   24.8010   54.0900 O   0  0  0  0  0  0  0  0  0  0  0  0
  173.0320   24.0070   52.9180 C   0  0  0  0  0  0  0  0  0  0  0  0
  172.2900   23.6590   51.7060 C   0  0  0  0  0  0  0  0  0  0  0  0
  171.0770   23.8360   51.6110 O   0  0  0  0  0  0  0  0  0  0  0  0
  173.0540   23.0790   50.5770 C   0  0  0  0  0  0  0  0  0  0  0  0
  172.3440   22.7660   49.4320 O   0  0  0  0  0  0  0  0  0  0  0  0
  176.1340   23.1820   48.9760 C   0  0  0  0  0  0  0  0  0  0  0  0
  176.9770   22.6670   47.9870 C   0  0  0  0  0  0  0  0  0  0  0  0
  176.9630   21.3010   47.6580 C   0  0  0  0  0  0  0  0  0  0  0  0
  177.8810   20.8030   46.5650 C   0  0  0  0  0  0  0  0  0  0  0  0
  178.9000   21.6630   46.2870 F   0  0  0  0  0  0  0  0  0  0  0  0
  177.2480   20.5970   45.3740 F   0  0  0  0  0  0  0  0  0  0  0  0
  174.1061   18.3051   47.2607 H   0  0  0  0  0  0  0  0  0  0  0  0
  174.9495   19.5491   46.2770 H   0  0  0  0  0  0  0  0  0  0  0  0
  175.5394   17.8524   46.2770 H   0  0  0  0  0  0  0  0  0  0  0  0
  175.6019   18.4553   48.9632 H   0  0  0  0  0  0  0  0  0  0  0  0
  177.0048   18.6074   47.8206 H   0  0  0  0  0  0  0  0  0  0  0  0
  174.5463   20.3138   49.8793 H   0  0  0  0  0  0  0  0  0  0  0  0
  176.2372   23.9170   54.0823 H   0  0  0  0  0  0  0  0  0  0  0  0
  175.1067   24.8915   56.0845 H   0  0  0  0  0  0  0  0  0  0  0  0
  172.6441   25.2959   56.0556 H   0  0  0  0  0  0  0  0  0  0  0  0
  170.7410   25.5990   54.4680 H   0  0  0  0  0  0  0  0  0  0  0  0
  171.4270   22.9500   49.3840 H   0  0  0  0  0  0  0  0  0  0  0  0
  176.1711   24.2542   49.2187 H   0  0  0  0  0  0  0  0  0  0  0  0
  177.6637   23.3433   47.4568 H   0  0  0  0  0  0  0  0  0  0  0  0
  178.2586   19.8563   46.9788 H   0  0  0  0  0  0  0  0  0  0  0  0
  1  2  1  0
  2  3  1  0
  3  4  2  0
  4  5  1  0
  5  6  1  0
  6  7  1  0
  7  8  1  0
  8  9  2  0
  9 10  1  0
 10 11  2  0
 11 12  1  0
 12 13  1  0
 12 14  2  0
 14 15  1  0
 15 16  2  0
 15 17  1  0
 17 18  1  0
  5 19  2  0
 19 20  1  0
 20 21  2  0
 21 22  1  0
 22 23  1  0
 22 24  1  0
 21  3  1  0
 17  6  2  0
 14  8  1  0
  1 25  1  0
  1 26  1  0
  1 27  1  0
  2 28  1  0
  2 29  1  0
  4 30  1  0
  9 31  1  0
 10 32  1  0
 11 33  1  0
 13 34  1  0
 18 35  1  0
 19 36  1  0
 20 37  1  0
 22 38  1  0
M  END
>  <meeko>  (4) 
{"is_sidechain": [false], "free_energy": -7.457, "intermolecular_energy": -9.127, "internal_energy": -0.615}

$$$$
cand_017_out
     RDKit          3D

 38 40  0  0  0  0  0  0  0  0999 V2000
  174.1970   26.7870   51.6750 C   0  0  0  0  0  0  0  0  0  0  0  0
  174.3060   26.5230   50.1800 C   0  0  0  0  0  0  0  0  0  0  0  0
  174.5600   25.0620   49.8800 C   0  0  0  0  0  0  0  0  0  0  0  0
  175.8890   24.5930   49.9470 C   0  0  0  0  0  0  0  0  0  0  0  0
  176.2120   23.2540   49.6900 C   0  0  0  0  0  0  0  0  0  0  0  0
  177.6020   22.7570   49.7860 C   0  0  0  0  0  0  0  0  0  0  0  0
  178.0040   22.0570   48.6550 O   0  0  0  0  0  0  0  0  0  0  0  0
  179.2740   21.5410   48.6120 C   0  0  0  0  0  0  0  0  0  0  0  0
  179.6310   20.8310   47.4640 C   0  0  0  0  0  0  0  0  0  0  0  0
  180.9100   20.2800   47.3550 C   0  0  0  0  0  0  0  0  0  0  0  0
  181.8300   20.4390   48.3930 C   0  0  0  0  0  0  0  0  0  0  0  0
  181.4720   21.1480   49.5360 C   0  0  0  0  0  0  0  0  0  0  0  0
  182.4230   21.2660   50.5130 O   0  0  0  0  0  0  0  0  0  0  0  0
  180.1920   21.6980   49.6450 C   0  0  0  0  0  0  0  0  0  0  0  0
  179.7740   22.4490   50.8300 C   0  0  0  0  0  0  0  0  0  0  0  0
  180.5300   22.6380   51.7820 O   0  0  0  0  0  0  0  0  0  0  0  0
  178.3930   22.9850   50.8500 C   0  0  0  0  0  0  0  0  0  0  0  0
  178.0130   23.7040   51.9690 O   0  0  0  0  0  0  0  0  0  0  0  0
  175.1760   22.3690   49.3780 C   0  0  0  0  0  0  0  0  0  0  0  0
  173.8530   22.8150   49.3100 C   0  0  0  0  0  0  0  0  0  0  0  0
  173.5250   24.1590   49.5610 C   0  0  0  0  0  0  0  0  0  0  0  0
  172.0810   24.5910   49.4510 C   0  0  0  0  0  0  0  0  0  0  0  0
  171.3810   24.4220   50.6080 F   0  0  0  0  0  0  0  0  0  0  0  0
  171.3780   23.9060   48.5020 F   0  0  0  0  0  0  0  0  0  0  0  0
  174.5595   25.9090   52.2298 H   0  0  0  0  0  0  0  0  0  0  0  0
  174.8066   27.6641   51.9378 H   0  0  0  0  0  0  0  0  0  0  0  0
  173.1462   26.9786   51.9378 H   0  0  0  0  0  0  0  0  0  0  0  0
  173.3660   26.8268   49.6962 H   0  0  0  0  0  0  0  0  0  0  0  0
  175.1574   27.1024   49.7936 H   0  0  0  0  0  0  0  0  0  0  0  0
  176.6928   25.2972   50.2079 H   0  0  0  0  0  0  0  0  0  0  0  0
  178.9059   20.7057   46.6463 H   0  0  0  0  0  0  0  0  0  0  0  0
  181.1924   19.7206   46.4509 H   0  0  0  0  0  0  0  0  0  0  0  0
  182.8369   20.0043   48.3076 H   0  0  0  0  0  0  0  0  0  0  0  0
  182.2570   21.7970   51.2660 H   0  0  0  0  0  0  0  0  0  0  0  0
  177.1290   23.6620   52.2730 H   0  0  0  0  0  0  0  0  0  0  0  0
  175.4042   21.3106   49.1840 H   0  0  0  0  0  0  0  0  0  0  0  0
  173.0547   22.1022   49.0557 H   0  0  0  0  0  0  0  0  0  0  0  0
  172.1663   25.6553   49.1863 H   0  0  0  0  0  0  0  0  0  0  0  0
  1  2  1  0
  2  3  1  0
  3  4  2  0
  4  5  1  0
  5  6  1  0
  6  7  1  0
  7  8  1  0
  8  9  2  0
  9 10  1  0
 10 11  2  0
 11 12  1  0
 12 13  1  0
 12 14  2  0
 14 15  1  0
 15 16  2  0
 15 17  1  0
 17 18  1  0
  5 19  2  0
 19 20  1  0
 20 21  2  0
 21 22  1  0
 22 23  1  0
 22 24  1  0
 21  3  1  0
 17  6  2  0
 14  8  1  0
  1 25  1  0
  1 26  1  0
  1 27  1  0
  2 28  1  0
  2 29  1  0
  4 30  1  0
  9 31  1  0
 10 32  1  0
 11 33  1  0
 13 34  1  0
 18 35  1  0
 19 36  1  0
 20 37  1  0
 22 38  1  0
M  END
>  <meeko>  (5) 
{"is_sidechain": [false], "free_energy": -7.353, "intermolecular_energy": -9.162, "internal_energy": -0.451}

$$$$
cand_017_out
     RDKit          3D

 38 40  0  0  0  0  0  0  0  0999 V2000
  179.7780   20.6660   47.1500 C   0  0  0  0  0  0  0  0  0  0  0  0
  178.4440   21.0120   46.5040 C   0  0  0  0  0  0  0  0  0  0  0  0
  177.2910   20.8680   47.4730 C   0  0  0  0  0  0  0  0  0  0  0  0
  177.1750   21.8130   48.5130 C   0  0  0  0  0  0  0  0  0  0  0  0
  176.1340   21.7560   49.4500 C   0  0  0  0  0  0  0  0  0  0  0  0
  176.0000   22.7620   50.5250 C   0  0  0  0  0  0  0  0  0  0  0  0
  175.4970   23.9750   50.0710 O   0  0  0  0  0  0  0  0  0  0  0  0
  175.3220   24.9980   50.9670 C   0  0  0  0  0  0  0  0  0  0  0  0
  174.8300   26.2040   50.4650 C   0  0  0  0  0  0  0  0  0  0  0  0
  174.6270   27.2860   51.3250 C   0  0  0  0  0  0  0  0  0  0  0  0
  174.9160   27.1620   52.6840 C   0  0  0  0  0  0  0  0  0  0  0  0
  175.4080   25.9590   53.1830 C   0  0  0  0  0  0  0  0  0  0  0  0
  175.6690   25.9070   54.5250 O   0  0  0  0  0  0  0  0  0  0  0  0
  175.6110   24.8770   52.3230 C   0  0  0  0  0  0  0  0  0  0  0  0
  176.1260   23.5940   52.8050 C   0  0  0  0  0  0  0  0  0  0  0  0
  176.3980   23.4050   53.9900 O   0  0  0  0  0  0  0  0  0  0  0  0
  176.3130   22.5130   51.8100 C   0  0  0  0  0  0  0  0  0  0  0  0
  176.7880   21.3020   52.2790 O   0  0  0  0  0  0  0  0  0  0  0  0
  175.1830   20.7400   49.3240 C   0  0  0  0  0  0  0  0  0  0  0  0
  175.2790   19.7960   48.2980 C   0  0  0  0  0  0  0  0  0  0  0  0
  176.3250   19.8460   47.3600 C   0  0  0  0  0  0  0  0  0  0  0  0
  176.3920   18.7860   46.2840 C   0  0  0  0  0  0  0  0  0  0  0  0
  175.4890   17.7810   46.4630 F   0  0  0  0  0  0  0  0  0  0  0  0
  177.6060   18.1690   46.2020 F   0  0  0  0  0  0  0  0  0  0  0  0
  179.6733   20.6932   48.2447 H   0  0  0  0  0  0  0  0  0  0  0  0
  180.0869   19.6580   46.8361 H   0  0  0  0  0  0  0  0  0  0  0  0
  180.5379   21.3968   46.8361 H   0  0  0  0  0  0  0  0  0  0  0  0
  178.4809   22.0521   46.1480 H   0  0  0  0  0  0  0  0  0  0  0  0
  178.2778   20.3123   45.6716 H   0  0  0  0  0  0  0  0  0  0  0  0
  177.9218   22.6169   48.5912 H   0  0  0  0  0  0  0  0  0  0  0  0
  174.6024   26.3023   49.3933 H   0  0  0  0  0  0  0  0  0  0  0  0
  174.2389   28.2365   50.9302 H   0  0  0  0  0  0  0  0  0  0  0  0
  174.7553   28.0141   53.3609 H   0  0  0  0  0  0  0  0  0  0  0  0
  176.2660   26.5170   54.9100 H   0  0  0  0  0  0  0  0  0  0  0  0
  177.7100   21.1340   52.2910 H   0  0  0  0  0  0  0  0  0  0  0  0
  174.3499   20.6826   50.0400 H   0  0  0  0  0  0  0  0  0  0  0  0
  174.5232   19.0003   48.2231 H   0  0  0  0  0  0  0  0  0  0  0  0
  176.1781   19.3572   45.3686 H   0  0  0  0  0  0  0  0  0  0  0  0
  1  2  1  0
  2  3  1  0
  3  4  2  0
  4  5  1  0
  5  6  1  0
  6  7  1  0
  7  8  1  0
  8  9  2  0
  9 10  1  0
 10 11  2  0
 11 12  1  0
 12 13  1  0
 12 14  2  0
 14 15  1  0
 15 16  2  0
 15 17  1  0
 17 18  1  0
  5 19  2  0
 19 20  1  0
 20 21  2  0
 21 22  1  0
 22 23  1  0
 22 24  1  0
 21  3  1  0
 17  6  2  0
 14  8  1  0
  1 25  1  0
  1 26  1  0
  1 27  1  0
  2 28  1  0
  2 29  1  0
  4 30  1  0
  9 31  1  0
 10 32  1  0
 11 33  1  0
 13 34  1  0
 18 35  1  0
 19 36  1  0
 20 37  1  0
 22 38  1  0
M  END
>  <meeko>  (6) 
{"is_sidechain": [false], "free_energy": -7.325, "intermolecular_energy": -9.047, "internal_energy": -0.532}

$$$$
cand_017_out
     RDKit          3D

 38 40  0  0  0  0  0  0  0  0999 V2000
  180.9000   18.4260   44.7090 C   0  0  0  0  0  0  0  0  0  0  0  0
  179.8290   18.4800   45.7900 C   0  0  0  0  0  0  0  0  0  0  0  0
  179.7960   19.8230   46.4880 C   0  0  0  0  0  0  0  0  0  0  0  0
  181.0030   20.3290   47.0120 C   0  0  0  0  0  0  0  0  0  0  0  0
  181.0620   21.5660   47.6680 C   0  0  0  0  0  0  0  0  0  0  0  0
  182.3330   22.1070   48.1950 C   0  0  0  0  0  0  0  0  0  0  0  0
  183.0070   22.9000   47.2740 O   0  0  0  0  0  0  0  0  0  0  0  0
  184.2030   23.4650   47.6350 C   0  0  0  0  0  0  0  0  0  0  0  0
  184.8530   24.2410   46.6740 C   0  0  0  0  0  0  0  0  0  0  0  0
  186.0740   24.8470   46.9780 C   0  0  0  0  0  0  0  0  0  0  0  0
  186.6440   24.6770   48.2410 C   0  0  0  0  0  0  0  0  0  0  0  0
  185.9940   23.9030   49.1980 C   0  0  0  0  0  0  0  0  0  0  0  0
  186.6080   23.7790   50.4140 O   0  0  0  0  0  0  0  0  0  0  0  0
  184.7720   23.2960   48.8940 C   0  0  0  0  0  0  0  0  0  0  0  0
  184.0560   22.4740   49.8690 C   0  0  0  0  0  0  0  0  0  0  0  0
  184.4890   22.2830   51.0050 O   0  0  0  0  0  0  0  0  0  0  0  0
  182.7720   21.8690   49.4450 C   0  0  0  0  0  0  0  0  0  0  0  0
  182.0970   21.1050   50.3790 O   0  0  0  0  0  0  0  0  0  0  0  0
  179.8870   22.3150   47.7790 C   0  0  0  0  0  0  0  0  0  0  0  0
  178.6820   21.8310   47.2620 C   0  0  0  0  0  0  0  0  0  0  0  0
  178.6170   20.5880   46.6100 C   0  0  0  0  0  0  0  0  0  0  0  0
  177.2820   20.1050   46.0900 C   0  0  0  0  0  0  0  0  0  0  0  0
  176.3230   21.0730   46.0910 F   0  0  0  0  0  0  0  0  0  0  0  0
  176.7550   19.0750   46.8150 F   0  0  0  0  0  0  0  0  0  0  0  0
  181.8932   18.3759   45.1791 H   0  0  0  0  0  0  0  0  0  0  0  0
  180.7450   17.5345   44.0835 H   0  0  0  0  0  0  0  0  0  0  0  0
  180.8355   19.3285   44.0835 H   0  0  0  0  0  0  0  0  0  0  0  0
  178.8480   18.2957   45.3277 H   0  0  0  0  0  0  0  0  0  0  0  0
  180.0650   17.7120   46.5413 H   0  0  0  0  0  0  0  0  0  0  0  0
  181.9235   19.7368   46.9030 H   0  0  0  0  0  0  0  0  0  0  0  0
  184.4042   24.3751   45.6787 H   0  0  0  0  0  0  0  0  0  0  0  0
  186.5871   25.4589   46.2215 H   0  0  0  0  0  0  0  0  0  0  0  0
  187.6059   25.1543   48.4796 H   0  0  0  0  0  0  0  0  0  0  0  0
  186.1140   23.5140   51.1640 H   0  0  0  0  0  0  0  0  0  0  0  0
  182.5050   20.3440   50.7440 H   0  0  0  0  0  0  0  0  0  0  0  0
  179.9109   23.2949   48.2781 H   0  0  0  0  0  0  0  0  0  0  0  0
  177.7681   22.4340   47.3674 H   0  0  0  0  0  0  0  0  0  0  0  0
  177.5237   19.7830   45.0664 H   0  0  0  0  0  0  0  0  0  0  0  0
  1  2  1  0
  2  3  1  0
  3  4  2  0
  4  5  1  0
  5  6  1  0
  6  7  1  0
  7  8  1  0
  8  9  2  0
  9 10  1  0
 10 11  2  0
 11 12  1  0
 12 13  1  0
 12 14  2  0
 14 15  1  0
 15 16  2  0
 15 17  1  0
 17 18  1  0
  5 19  2  0
 19 20  1  0
 20 21  2  0
 21 22  1  0
 22 23  1  0
 22 24  1  0
 21  3  1  0
 17  6  2  0
 14  8  1  0
  1 25  1  0
  1 26  1  0
  1 27  1  0
  2 28  1  0
  2 29  1  0
  4 30  1  0
  9 31  1  0
 10 32  1  0
 11 33  1  0
 13 34  1  0
 18 35  1  0
 19 36  1  0
 20 37  1  0
 22 38  1  0
M  END
>  <meeko>  (7) 
{"is_sidechain": [false], "free_energy": -7.323, "intermolecular_energy": -8.909, "internal_energy": -0.667}

$$$$
cand_017_out
     RDKit          3D

 38 40  0  0  0  0  0  0  0  0999 V2000
  182.4400   21.1340   48.2530 C   0  0  0  0  0  0  0  0  0  0  0  0
  181.4620   21.8560   47.3370 C   0  0  0  0  0  0  0  0  0  0  0  0
  180.0450   21.3560   47.5130 C   0  0  0  0  0  0  0  0  0  0  0  0
  179.2530   21.9460   48.5200 C   0  0  0  0  0  0  0  0  0  0  0  0
  177.9290   21.5460   48.7470 C   0  0  0  0  0  0  0  0  0  0  0  0
  177.0920   22.1830   49.7870 C   0  0  0  0  0  0  0  0  0  0  0  0
  175.9990   22.8590   49.2610 O   0  0  0  0  0  0  0  0  0  0  0  0
  175.1390   23.4960   50.1180 C   0  0  0  0  0  0  0  0  0  0  0  0
  174.0630   24.1780   49.5460 C   0  0  0  0  0  0  0  0  0  0  0  0
  173.1480   24.8460   50.3620 C   0  0  0  0  0  0  0  0  0  0  0  0
  173.3090   24.8340   51.7490 C   0  0  0  0  0  0  0  0  0  0  0  0
  174.3820   24.1540   52.3170 C   0  0  0  0  0  0  0  0  0  0  0  0
  174.4790   24.1820   53.6820 O   0  0  0  0  0  0  0  0  0  0  0  0
  175.2980   23.4850   51.5000 C   0  0  0  0  0  0  0  0  0  0  0  0
  176.4400   22.7590   52.0560 C   0  0  0  0  0  0  0  0  0  0  0  0
  176.6460   22.6960   53.2670 O   0  0  0  0  0  0  0  0  0  0  0  0
  177.3570   22.0900   51.1030 C   0  0  0  0  0  0  0  0  0  0  0  0
  178.4260   21.3960   51.6400 O   0  0  0  0  0  0  0  0  0  0  0  0
  177.3880   20.5480   47.9320 C   0  0  0  0  0  0  0  0  0  0  0  0
  178.1570   19.9540   46.9260 C   0  0  0  0  0  0  0  0  0  0  0  0
  179.4870   20.3470   46.7000 C   0  0  0  0  0  0  0  0  0  0  0  0
  180.2780   19.6560   45.6130 C   0  0  0  0  0  0  0  0  0  0  0  0
  180.0620   20.1820   44.3750 F   0  0  0  0  0  0  0  0  0  0  0  0
  179.9940   18.3260   45.4940 F   0  0  0  0  0  0  0  0  0  0  0  0
  182.1735   21.3308   49.3019 H   0  0  0  0  0  0  0  0  0  0  0  0
  182.3932   20.0522   48.0595 H   0  0  0  0  0  0  0  0  0  0  0  0
  183.4601   21.4973   48.0595 H   0  0  0  0  0  0  0  0  0  0  0  0
  181.4898   22.9317   47.5652 H   0  0  0  0  0  0  0  0  0  0  0  0
  181.7639   21.6616   46.2973 H   0  0  0  0  0  0  0  0  0  0  0  0
  179.6861   22.7416   49.1441 H   0  0  0  0  0  0  0  0  0  0  0  0
  173.9364   24.1889   48.4534 H   0  0  0  0  0  0  0  0  0  0  0  0
  172.2995   25.3822   49.9119 H   0  0  0  0  0  0  0  0  0  0  0  0
  172.5887   25.3613   52.3917 H   0  0  0  0  0  0  0  0  0  0  0  0
  173.8010   24.5790   54.1910 H   0  0  0  0  0  0  0  0  0  0  0  0
  178.2800   20.5870   52.0880 H   0  0  0  0  0  0  0  0  0  0  0  0
  176.3470   20.2264   48.0832 H   0  0  0  0  0  0  0  0  0  0  0  0
  177.7129   19.1654   46.3008 H   0  0  0  0  0  0  0  0  0  0  0  0
  181.3182   19.8091   45.9365 H   0  0  0  0  0  0  0  0  0  0  0  0
  1  2  1  0
  2  3  1  0
  3  4  2  0
  4  5  1  0
  5  6  1  0
  6  7  1  0
  7  8  1  0
  8  9  2  0
  9 10  1  0
 10 11  2  0
 11 12  1  0
 12 13  1  0
 12 14  2  0
 14 15  1  0
 15 16  2  0
 15 17  1  0
 17 18  1  0
  5 19  2  0
 19 20  1  0
 20 21  2  0
 21 22  1  0
 22 23  1  0
 22 24  1  0
 21  3  1  0
 17  6  2  0
 14  8  1  0
  1 25  1  0
  1 26  1  0
  1 27  1  0
  2 28  1  0
  2 29  1  0
  4 30  1  0
  9 31  1  0
 10 32  1  0
 11 33  1  0
 13 34  1  0
 18 35  1  0
 19 36  1  0
 20 37  1  0
 22 38  1  0
M  END
>  <meeko>  (8) 
{"is_sidechain": [false], "free_energy": -7.313, "intermolecular_energy": -8.996, "internal_energy": -0.568}

$$$$
cand_017_out
     RDKit          3D

 38 40  0  0  0  0  0  0  0  0999 V2000
  179.2890   23.8670   48.0860 C   0  0  0  0  0  0  0  0  0  0  0  0
  177.9770   23.7330   47.3270 C   0  0  0  0  0  0  0  0  0  0  0  0
  177.0290   22.7650   48.0010 C   0  0  0  0  0  0  0  0  0  0  0  0
  176.1950   23.2580   49.0260 C   0  0  0  0  0  0  0  0  0  0  0  0
  175.2840   22.4310   49.6980 C   0  0  0  0  0  0  0  0  0  0  0  0
  174.3920   22.9540   50.7550 C   0  0  0  0  0  0  0  0  0  0  0  0
  175.0800   23.3390   51.8990 O   0  0  0  0  0  0  0  0  0  0  0  0
  174.3710   23.8430   52.9600 C   0  0  0  0  0  0  0  0  0  0  0  0
  175.0990   24.2020   54.0950 C   0  0  0  0  0  0  0  0  0  0  0  0
  174.4390   24.7250   55.2100 C   0  0  0  0  0  0  0  0  0  0  0  0
  173.0530   24.8860   55.1890 C   0  0  0  0  0  0  0  0  0  0  0  0
  172.3280   24.5270   54.0560 C   0  0  0  0  0  0  0  0  0  0  0  0
  170.9740   24.7130   54.1040 O   0  0  0  0  0  0  0  0  0  0  0  0
  172.9890   24.0050   52.9410 C   0  0  0  0  0  0  0  0  0  0  0  0
  172.2670   23.6140   51.7300 C   0  0  0  0  0  0  0  0  0  0  0  0
  171.0460   23.7330   51.6320 O   0  0  0  0  0  0  0  0  0  0  0  0
  173.0590   23.0640   50.6060 C   0  0  0  0  0  0  0  0  0  0  0  0
  172.3680   22.7100   49.4620 O   0  0  0  0  0  0  0  0  0  0  0  0
  175.2000   21.0880   49.3160 C   0  0  0  0  0  0  0  0  0  0  0  0
  176.0160   20.5830   48.3000 C   0  0  0  0  0  0  0  0  0  0  0  0
  176.9350   21.4070   47.6280 C   0  0  0  0  0  0  0  0  0  0  0  0
  177.8090   20.8030   46.5530 C   0  0  0  0  0  0  0  0  0  0  0  0
  177.1060   20.3880   45.4610 F   0  0  0  0  0  0  0  0  0  0  0  0
  178.5060   19.7060   46.9700 F   0  0  0  0  0  0  0  0  0  0  0  0
  179.0905   23.8467   49.1678 H   0  0  0  0  0  0  0  0  0  0  0  0
  179.9537   23.0321   47.8195 H   0  0  0  0  0  0  0  0  0  0  0  0
  179.7712   24.8191   47.8195 H   0  0  0  0  0  0  0  0  0  0  0  0
  177.4961   24.7208   47.2717 H   0  0  0  0  0  0  0  0  0  0  0  0
  178.2031   23.3441   46.3232 H   0  0  0  0  0  0  0  0  0  0  0  0
  176.2611   24.3198   49.3056 H   0  0  0  0  0  0  0  0  0  0  0  0
  176.1913   24.0734   54.1119 H   0  0  0  0  0  0  0  0  0  0  0  0
  175.0121   25.0099   56.1046 H   0  0  0  0  0  0  0  0  0  0  0  0
  172.5334   25.2964   56.0674 H   0  0  0  0  0  0  0  0  0  0  0  0
  170.4160   24.2480   53.5130 H   0  0  0  0  0  0  0  0  0  0  0  0
  172.8360   22.5070   48.6760 H   0  0  0  0  0  0  0  0  0  0  0  0
  174.4842   20.4224   49.8206 H   0  0  0  0  0  0  0  0  0  0  0  0
  175.9376   19.5218   48.0214 H   0  0  0  0  0  0  0  0  0  0  0  0
  178.4896   21.6297   46.3012 H   0  0  0  0  0  0  0  0  0  0  0  0
  1  2  1  0
  2  3  1  0
  3  4  2  0
  4  5  1  0
  5  6  1  0
  6  7  1  0
  7  8  1  0
  8  9  2  0
  9 10  1  0
 10 11  2  0
 11 12  1  0
 12 13  1  0
 12 14  2  0
 14 15  1  0
 15 16  2  0
 15 17  1  0
 17 18  1  0
  5 19  2  0
 19 20  1  0
 20 21  2  0
 21 22  1  0
 22 23  1  0
 22 24  1  0
 21  3  1  0
 17  6  2  0
 14  8  1  0
  1 25  1  0
  1 26  1  0
  1 27  1  0
  2 28  1  0
  2 29  1  0
  4 30  1  0
  9 31  1  0
 10 32  1  0
 11 33  1  0
 13 34  1  0
 18 35  1  0
 19 36  1  0
 20 37  1  0
 22 38  1  0
M  END
>  <meeko>  (9) 
{"is_sidechain": [false], "free_energy": -7.231, "intermolecular_energy": -8.896, "internal_energy": -0.567}

$$$$
