cand_042_out
     RDKit          3D

 38 40  0  0  0  0  0  0  0  0999 V2000
  181.4010   14.8590   41.2960 C   0  0  0  0  0  0  0  0  0  0  0  0
  182.0500   14.9360   42.6700 C   0  0  0  0  0  0  0  0  0  0  0  0
  181.3430   15.9200   43.5760 C   0  0  0  0  0  0  0  0  0  0  0  0
  181.6410   17.2850   43.4400 C   0  0  0  0  0  0  0  0  0  0  0  0
  181.0290   18.2410   44.2550 C   0  0  0  0  0  0  0  0  0  0  0  0
  180.0970   17.8600   45.2240 C   0  0  0  0  0  0  0  0  0  0  0  0
  179.4520   18.8470   46.1160 C   0  0  0  0  0  0  0  0  0  0  0  0
  178.0650   18.7600   46.1050 O   0  0  0  0  0  0  0  0  0  0  0  0
  177.3400   19.6200   46.8890 C   0  0  0  0  0  0  0  0  0  0  0  0
  175.9520   19.4880   46.8580 C   0  0  0  0  0  0  0  0  0  0  0  0
  175.1540   20.3330   47.6330 C   0  0  0  0  0  0  0  0  0  0  0  0
  175.7440   21.3110   48.4370 C   0  0  0  0  0  0  0  0  0  0  0  0
  177.1300   21.4400   48.4660 C   0  0  0  0  0  0  0  0  0  0  0  0
  177.6420   22.4180   49.2740 O   0  0  0  0  0  0  0  0  0  0  0  0
  177.9290   20.5930   47.6920 C   0  0  0  0  0  0  0  0  0  0  0  0
  179.3880   20.6960   47.6930 C   0  0  0  0  0  0  0  0  0  0  0  0
  179.9810   21.5350   48.3690 O   0  0  0  0  0  0  0  0  0  0  0  0
  180.1420   19.7460   46.8430 C   0  0  0  0  0  0  0  0  0  0  0  0
  181.5200   19.8610   46.8430 O   0  0  0  0  0  0  0  0  0  0  0  0
  179.8110   16.4930   45.3710 C   0  0  0  0  0  0  0  0  0  0  0  0
  180.4240   15.5170   44.5650 C   0  0  0  0  0  0  0  0  0  0  0  0
  180.0550   14.0730   44.7670 C   0  0  0  0  0  0  0  0  0  0  0  0
  180.3146   14.7301   41.4104 H   0  0  0  0  0  0  0  0  0  0  0  0
  181.6038   15.7875   40.7421 H   0  0  0  0  0  0  0  0  0  0  0  0
  181.8154   14.0037   40.7421 H   0  0  0  0  0  0  0  0  0  0  0  0
  182.0180   13.9393   43.1343 H   0  0  0  0  0  0  0  0  0  0  0  0
  183.0864   15.2799   42.5376 H   0  0  0  0  0  0  0  0  0  0  0  0
  182.3678   17.6072   42.6798 H   0  0  0  0  0  0  0  0  0  0  0  0
  181.2835   19.3041   44.1326 H   0  0  0  0  0  0  0  0  0  0  0  0
  175.4861   18.7193   46.2240 H   0  0  0  0  0  0  0  0  0  0  0  0
  174.0593   20.2280   47.6101 H   0  0  0  0  0  0  0  0  0  0  0  0
  175.1153   21.9775   49.0456 H   0  0  0  0  0  0  0  0  0  0  0  0
  178.5380   22.3810   49.5440 H   0  0  0  0  0  0  0  0  0  0  0  0
  181.9680   20.1280   46.0660 H   0  0  0  0  0  0  0  0  0  0  0  0
  179.0879   16.1770   46.1373 H   0  0  0  0  0  0  0  0  0  0  0  0
  179.9995   13.8559   45.8439 H   0  0  0  0  0  0  0  0  0  0  0  0
  179.0776   13.8759   44.3024 H   0  0  0  0  0  0  0  0  0  0  0  0
  180.8180   13.4311   44.3024 H   0  0  0  0  0  0  0  0  0  0  0  0
  1  2  1  0
  2  3  1  0
  3  4  2  0
  4  5  1  0
  5  6  2  0
  6  7  1  0
  7  8  1  0
  8  9  1  0
  9 10  2  0
 10 11  1  0
 11 12  2  0
 12 13  1  0
 13 14  1  0
 13 15  2  0
 15 16  1  0
 16 17  2  0
 16 18  1  0
 18 19  1  0
  6 20  1  0
 20 21  2  0
 21 22  1  0
 21  3  1  0
 18  7  2  0
 15  9  1  0
  1 23  1  0
  1 24  1  0
  1 25  1  0
  2 26  1  0
  2 27  1  0
  4 28  1  0
  5 29  1  0
 10 30  1  0
 11 31  1  0
 12 32  1  0
 14 33  1  0
 19 34  1  0
 20 35  1  0
 22 36  1  0
 22 37  1  0
 22 38  1  0
M  END
>  <meeko>  (1) 
{"is_sidechain": [false], "free_energy": -8.092, "intermolecular_energy": -9.511, "internal_energy": -0.25}

$$$$
cand_042_out
     RDKit          3D

 38 40  0  0  0  0  0  0  0  0999 V2000
  181.1760   14.9610   40.9180 C   0  0  0  0  0  0  0  0  0  0  0  0
  181.2070   14.4720   42.3580 C   0  0  0  0  0  0  0  0  0  0  0  0
  180.9060   15.5820   43.3400 C   0  0  0  0  0  0  0  0  0  0  0  0
  181.3820   16.8720   43.0560 C   0  0  0  0  0  0  0  0  0  0  0  0
  181.1460   17.9370   43.9280 C   0  0  0  0  0  0  0  0  0  0  0  0
  180.4210   17.7440   45.1080 C   0  0  0  0  0  0  0  0  0  0  0  0
  180.1750   18.8470   46.0610 C   0  0  0  0  0  0  0  0  0  0  0  0
  181.3470   19.3740   46.5910 O   0  0  0  0  0  0  0  0  0  0  0  0
  181.2640   20.4050   47.4910 C   0  0  0  0  0  0  0  0  0  0  0  0
  182.4650   20.9130   47.9860 C   0  0  0  0  0  0  0  0  0  0  0  0
  182.4510   21.9630   48.9070 C   0  0  0  0  0  0  0  0  0  0  0  0
  181.2360   22.5040   49.3340 C   0  0  0  0  0  0  0  0  0  0  0  0
  180.0390   21.9950   48.8370 C   0  0  0  0  0  0  0  0  0  0  0  0
  178.8860   22.5710   49.2970 O   0  0  0  0  0  0  0  0  0  0  0  0
  180.0530   20.9450   47.9140 C   0  0  0  0  0  0  0  0  0  0  0  0
  178.8180   20.3820   47.3690 C   0  0  0  0  0  0  0  0  0  0  0  0
  177.7100   20.8000   47.7010 O   0  0  0  0  0  0  0  0  0  0  0  0
  178.9430   19.2760   46.3920 C   0  0  0  0  0  0  0  0  0  0  0  0
  177.7690   18.7430   45.8930 O   0  0  0  0  0  0  0  0  0  0  0  0
  179.9570   16.4510   45.4000 C   0  0  0  0  0  0  0  0  0  0  0  0
  180.1940   15.3660   44.5360 C   0  0  0  0  0  0  0  0  0  0  0  0
  179.6510   14.0130   44.9050 C   0  0  0  0  0  0  0  0  0  0  0  0
  181.1064   16.0587   40.9050 H   0  0  0  0  0  0  0  0  0  0  0  0
  182.0959   14.6458   40.4038 H   0  0  0  0  0  0  0  0  0  0  0  0
  180.3032   14.5321   40.4038 H   0  0  0  0  0  0  0  0  0  0  0  0
  180.4563   13.6772   42.4794 H   0  0  0  0  0  0  0  0  0  0  0  0
  182.2199   14.0981   42.5680 H   0  0  0  0  0  0  0  0  0  0  0  0
  181.9506   17.0468   42.1307 H   0  0  0  0  0  0  0  0  0  0  0  0
  181.5340   18.9370   43.6843 H   0  0  0  0  0  0  0  0  0  0  0  0
  183.4224   20.4871   47.6513 H   0  0  0  0  0  0  0  0  0  0  0  0
  183.3981   22.3645   49.2966 H   0  0  0  0  0  0  0  0  0  0  0  0
  181.2248   23.3297   50.0607 H   0  0  0  0  0  0  0  0  0  0  0  0
  178.7420   22.6590   50.2190 H   0  0  0  0  0  0  0  0  0  0  0  0
  177.1240   19.3050   45.5120 H   0  0  0  0  0  0  0  0  0  0  0  0
  179.3931   16.2819   46.3292 H   0  0  0  0  0  0  0  0  0  0  0  0
  179.6134   13.9193   46.0004 H   0  0  0  0  0  0  0  0  0  0  0  0
  178.6377   13.8996   44.4923 H   0  0  0  0  0  0  0  0  0  0  0  0
  180.3047   13.2305   44.4923 H   0  0  0  0  0  0  0  0  0  0  0  0
  1  2  1  0
  2  3  1  0
  3  4  2  0
  4  5  1  0
  5  6  2  0
  6  7  1  0
  7  8  1  0
  8  9  1  0
  9 10  2  0
 10 11  1  0
 11 12  2  0
 12 13  1  0
 13 14  1  0
 13 15  2  0
 15 16  1  0
 16 17  2  0
 16 18  1  0
 18 19  1  0
  6 20  1  0
 20 21  2  0
 21 22  1  0
 21  3  1  0
 18  7  2  0
 15  9  1  0
  1 23  1  0
  1 24  1  0
  1 25  1  0
  2 26  1  0
  2 27  1  0
  4 28  1  0
  5 29  1  0
 10 30  1  0
 11 31  1  0
 12 32  1  0
 14 33  1  0
 19 34  1  0
 20 35  1  0
 22 36  1  0
 22 37  1  0
 22 38  1  0
M  END
>  <meeko>  (2) 
{"is_sidechain": [false], "free_energy": -7.603, "intermolecular_energy": -8.87, "internal_energy": -0.317}

$$$$
cand_042_out
     RDKit          3D

 38 40  0  0  0  0  0  0  0  0999 V2000
  179.1270   20.4320   46.8340 C   0  0  0  0  0  0  0  0  0  0  0  0
  177.7420   20.8160   46.3360 C   0  0  0  0  0  0  0  0  0  0  0  0
  176.8600   21.3280   47.4520 C   0  0  0  0  0  0  0  0  0  0  0  0
  176.9870   22.6720   47.8410 C   0  0  0  0  0  0  0  0  0  0  0  0
  176.2080   23.2010   48.8720 C   0  0  0  0  0  0  0  0  0  0  0  0
  175.2750   22.4040   49.5420 C   0  0  0  0  0  0  0  0  0  0  0  0
  174.4540   22.9310   50.6530 C   0  0  0  0  0  0  0  0  0  0  0  0
  175.2050   23.2390   51.7810 O   0  0  0  0  0  0  0  0  0  0  0  0
  174.5670   23.7370   52.8870 C   0  0  0  0  0  0  0  0  0  0  0  0
  175.3620   24.0450   53.9920 C   0  0  0  0  0  0  0  0  0  0  0  0
  174.7750   24.5560   55.1520 C   0  0  0  0  0  0  0  0  0  0  0  0
  173.3940   24.7580   55.2080 C   0  0  0  0  0  0  0  0  0  0  0  0
  172.6040   24.4500   54.1030 C   0  0  0  0  0  0  0  0  0  0  0  0
  171.2590   24.6710   54.2250 O   0  0  0  0  0  0  0  0  0  0  0  0
  173.1920   23.9400   52.9420 C   0  0  0  0  0  0  0  0  0  0  0  0
  172.3980   23.6030   51.7600 C   0  0  0  0  0  0  0  0  0  0  0  0
  171.1760   23.7460   51.7340 O   0  0  0  0  0  0  0  0  0  0  0  0
  173.1180   23.0760   50.5790 C   0  0  0  0  0  0  0  0  0  0  0  0
  172.3550   22.7490   49.4720 O   0  0  0  0  0  0  0  0  0  0  0  0
  175.1590   21.0570   49.1640 C   0  0  0  0  0  0  0  0  0  0  0  0
  175.9420   20.5050   48.1330 C   0  0  0  0  0  0  0  0  0  0  0  0
  175.7500   19.0580   47.7710 C   0  0  0  0  0  0  0  0  0  0  0  0
  179.1337   20.4302   47.9340 H   0  0  0  0  0  0  0  0  0  0  0  0
  179.3845   19.4286   46.4641 H   0  0  0  0  0  0  0  0  0  0  0  0
  179.8644   21.1596   46.4641 H   0  0  0  0  0  0  0  0  0  0  0  0
  177.8442   21.6033   45.5746 H   0  0  0  0  0  0  0  0  0  0  0  0
  177.2702   19.9152   45.9165 H   0  0  0  0  0  0  0  0  0  0  0  0
  177.7122   23.3183   47.3248 H   0  0  0  0  0  0  0  0  0  0  0  0
  176.3296   24.2556   49.1600 H   0  0  0  0  0  0  0  0  0  0  0  0
  176.4496   23.8855   53.9495 H   0  0  0  0  0  0  0  0  0  0  0  0
  175.4013   24.7997   56.0228 H   0  0  0  0  0  0  0  0  0  0  0  0
  172.9318   25.1591   56.1220 H   0  0  0  0  0  0  0  0  0  0  0  0
  170.9160   25.0490   55.0110 H   0  0  0  0  0  0  0  0  0  0  0  0
  171.7420   23.3670   49.1270 H   0  0  0  0  0  0  0  0  0  0  0  0
  174.4359   20.4150   49.6883 H   0  0  0  0  0  0  0  0  0  0  0  0
  175.6704   18.4577   48.6893 H   0  0  0  0  0  0  0  0  0  0  0  0
  174.8293   18.9471   47.1794 H   0  0  0  0  0  0  0  0  0  0  0  0
  176.6099   18.7108   47.1794 H   0  0  0  0  0  0  0  0  0  0  0  0
  1  2  1  0
  2  3  1  0
  3  4  2  0
  4  5  1  0
  5  6  2  0
  6  7  1  0
  7  8  1  0
  8  9  1  0
  9 10  2  0
 10 11  1  0
 11 12  2  0
 12 13  1  0
 13 14  1  0
 13 15  2  0
 15 16  1  0
 16 17  2  0
 16 18  1  0
 18 19  1  0
  6 20  1  0
 20 21  2  0
 21 22  1  0
 21  3  1  0
 18  7  2  0
 15  9  1  0
  1 23  1  0
  1 24  1  0
  1 25  1  0
  2 26  1  0
  2 27  1  0
  4 28  1  0
  5 29  1  0
 10 30  1  0
 11 31  1  0
 12 32  1  0
 14 33  1  0
 19 34  1  0
 20 35  1  0
 22 36  1  0
 22 37  1  0
 22 38  1  0
M  END
>  <meeko>  (3) 
{"is_sidechain": [false], "free_energy": -7.389, "intermolecular_energy": -8.548, "internal_energy": -0.388}

$$$$
cand_042_out
     RDKit          3D

 38 40  0  0  0  0  0  0  0  0999 V2000
  171.8050   24.4120   48.6870 C   0  0  0  0  0  0  0  0  0  0  0  0
  172.5700   24.0020   49.9360 C   0  0  0  0  0  0  0  0  0  0  0  0
  173.9760   23.5450   49.6140 C   0  0  0  0  0  0  0  0  0  0  0  0
  174.1650   22.2250   49.1750 C   0  0  0  0  0  0  0  0  0  0  0  0
  175.4390   21.7420   48.8720 C   0  0  0  0  0  0  0  0  0  0  0  0
  176.5620   22.5650   48.9940 C   0  0  0  0  0  0  0  0  0  0  0  0
  177.9250   22.0730   48.7040 C   0  0  0  0  0  0  0  0  0  0  0  0
  178.0590   21.5810   47.4110 O   0  0  0  0  0  0  0  0  0  0  0  0
  179.2750   21.0920   47.0090 C   0  0  0  0  0  0  0  0  0  0  0  0
  179.3670   20.6220   45.6990 C   0  0  0  0  0  0  0  0  0  0  0  0
  180.5770   20.1090   45.2260 C   0  0  0  0  0  0  0  0  0  0  0  0
  181.6940   20.0660   46.0630 C   0  0  0  0  0  0  0  0  0  0  0  0
  181.5990   20.5360   47.3700 C   0  0  0  0  0  0  0  0  0  0  0  0
  182.7300   20.4630   48.1360 O   0  0  0  0  0  0  0  0  0  0  0  0
  180.3880   21.0500   47.8430 C   0  0  0  0  0  0  0  0  0  0  0  0
  180.2450   21.5540   49.2090 C   0  0  0  0  0  0  0  0  0  0  0  0
  181.1810   21.5420   50.0080 O   0  0  0  0  0  0  0  0  0  0  0  0
  178.9220   22.0840   49.6090 C   0  0  0  0  0  0  0  0  0  0  0  0
  178.7960   22.5460   50.9060 O   0  0  0  0  0  0  0  0  0  0  0  0
  176.3750   23.8810   49.4490 C   0  0  0  0  0  0  0  0  0  0  0  0
  175.0990   24.3810   49.7660 C   0  0  0  0  0  0  0  0  0  0  0  0
  174.9740   25.8070   50.2290 C   0  0  0  0  0  0  0  0  0  0  0  0
  170.8699   24.9131   48.9777 H   0  0  0  0  0  0  0  0  0  0  0  0
  172.4201   25.1013   48.0900 H   0  0  0  0  0  0  0  0  0  0  0  0
  171.5716   23.5181   48.0900 H   0  0  0  0  0  0  0  0  0  0  0  0
  172.6238   24.8631   50.6184 H   0  0  0  0  0  0  0  0  0  0  0  0
  172.0365   23.1596   50.4004 H   0  0  0  0  0  0  0  0  0  0  0  0
  173.2949   21.5606   49.0681 H   0  0  0  0  0  0  0  0  0  0  0  0
  175.5605   20.7024   48.5336 H   0  0  0  0  0  0  0  0  0  0  0  0
  178.4876   20.6553   45.0391 H   0  0  0  0  0  0  0  0  0  0  0  0
  180.6501   19.7384   44.1929 H   0  0  0  0  0  0  0  0  0  0  0  0
  182.6468   19.6617   45.6905 H   0  0  0  0  0  0  0  0  0  0  0  0
  182.7690   20.9120   48.9580 H   0  0  0  0  0  0  0  0  0  0  0  0
  177.9690   22.8600   51.2140 H   0  0  0  0  0  0  0  0  0  0  0  0
  177.2501   24.5381   49.5604 H   0  0  0  0  0  0  0  0  0  0  0  0
  174.9714   25.8366   51.3286 H   0  0  0  0  0  0  0  0  0  0  0  0
  175.8243   26.3919   49.8485 H   0  0  0  0  0  0  0  0  0  0  0  0
  174.0349   26.2351   49.8485 H   0  0  0  0  0  0  0  0  0  0  0  0
  1  2  1  0
  2  3  1  0
  3  4  2  0
  4  5  1  0
  5  6  2  0
  6  7  1  0
  7  8  1  0
  8  9  1  0
  9 10  2  0
 10 11  1  0
 11 12  2  0
 12 13  1  0
 13 14  1  0
 13 15  2  0
 15 16  1  0
 16 17  2  0
 16 18  1  0
 18 19  1  0
  6 20  1  0
 20 21  2  0
 21 22  1  0
 21  3  1  0
 18  7  2  0
 15  9  1  0
  1 23  1  0
  1 24  1  0
  1 25  1  0
  2 26  1  0
  2 27  1  0
  4 28  1  0
  5 29  1  0
 10 30  1  0
 11 31  1  0
 12 32  1  0
 14 33  1  0
 19 34  1  0
 20 35  1  0
 22 36  1  0
 22 37  1  0
 22 38  1  0
M  END
>  <meeko>  (4) 
{"is_sidechain": [false], "free_energy": -7.386, "intermolecular_energy": -8.662, "internal_energy": -0.27}

$$$$
cand_042_out
     RDKit          3D

 38 40  0  0  0  0  0  0  0  0999 V2000
  180.4220   18.5180   45.4470 C   0  0  0  0  0  0  0  0  0  0  0  0
  180.2660   20.0260   45.3300 C   0  0  0  0  0  0  0  0  0  0  0  0
  179.4600   20.6030   46.4730 C   0  0  0  0  0  0  0  0  0  0  0  0
  178.1230   20.2010   46.6170 C   0  0  0  0  0  0  0  0  0  0  0  0
  177.3250   20.7060   47.6460 C   0  0  0  0  0  0  0  0  0  0  0  0
  177.8420   21.6230   48.5650 C   0  0  0  0  0  0  0  0  0  0  0  0
  177.0140   22.1920   49.6490 C   0  0  0  0  0  0  0  0  0  0  0  0
  175.9060   22.8840   49.1760 O   0  0  0  0  0  0  0  0  0  0  0  0
  175.0510   23.4640   50.0780 C   0  0  0  0  0  0  0  0  0  0  0  0
  173.9440   24.1360   49.5600 C   0  0  0  0  0  0  0  0  0  0  0  0
  173.0340   24.7500   50.4240 C   0  0  0  0  0  0  0  0  0  0  0  0
  173.2320   24.6930   51.8050 C   0  0  0  0  0  0  0  0  0  0  0  0
  174.3380   24.0200   52.3190 C   0  0  0  0  0  0  0  0  0  0  0  0
  174.4720   24.0040   53.6810 O   0  0  0  0  0  0  0  0  0  0  0  0
  175.2480   23.4050   51.4550 C   0  0  0  0  0  0  0  0  0  0  0  0
  176.4220   22.6900   51.9530 C   0  0  0  0  0  0  0  0  0  0  0  0
  176.6690   22.6010   53.1550 O   0  0  0  0  0  0  0  0  0  0  0  0
  177.3200   22.0670   50.9540 C   0  0  0  0  0  0  0  0  0  0  0  0
  178.4330   21.4040   51.4370 O   0  0  0  0  0  0  0  0  0  0  0  0
  179.1750   22.0370   48.4120 C   0  0  0  0  0  0  0  0  0  0  0  0
  179.9900   21.5450   47.3760 C   0  0  0  0  0  0  0  0  0  0  0  0
  181.4140   22.0200   47.2850 C   0  0  0  0  0  0  0  0  0  0  0  0
  180.4514   18.2337   46.5092 H   0  0  0  0  0  0  0  0  0  0  0  0
  179.5703   18.0223   44.9582 H   0  0  0  0  0  0  0  0  0  0  0  0
  181.3571   18.2071   44.9582 H   0  0  0  0  0  0  0  0  0  0  0  0
  181.2645   20.4874   45.3312 H   0  0  0  0  0  0  0  0  0  0  0  0
  179.7296   20.2404   44.3939 H   0  0  0  0  0  0  0  0  0  0  0  0
  177.6966   19.4763   45.9078 H   0  0  0  0  0  0  0  0  0  0  0  0
  176.2786   20.3785   47.7339 H   0  0  0  0  0  0  0  0  0  0  0  0
  173.7876   24.1825   48.4722 H   0  0  0  0  0  0  0  0  0  0  0  0
  172.1603   25.2791   50.0158 H   0  0  0  0  0  0  0  0  0  0  0  0
  172.5165   25.1782   52.4852 H   0  0  0  0  0  0  0  0  0  0  0  0
  175.1460   23.4900   54.0790 H   0  0  0  0  0  0  0  0  0  0  0  0
  179.2550   21.8480   51.4940 H   0  0  0  0  0  0  0  0  0  0  0  0
  179.5935   22.7660   49.1215 H   0  0  0  0  0  0  0  0  0  0  0  0
  181.8207   22.1557   48.2980 H   0  0  0  0  0  0  0  0  0  0  0  0
  182.0156   21.2739   46.7452 H   0  0  0  0  0  0  0  0  0  0  0  0
  181.4472   22.9779   46.7452 H   0  0  0  0  0  0  0  0  0  0  0  0
  1  2  1  0
  2  3  1  0
  3  4  2  0
  4  5  1  0
  5  6  2  0
  6  7  1  0
  7  8  1  0
  8  9  1  0
  9 10  2  0
 10 11  1  0
 11 12  2  0
 12 13  1  0
 13 14  1  0
 13 15  2  0
 15 16  1  0
 16 17  2  0
 16 18  1  0
 18 19  1  0
  6 20  1  0
 20 21  2  0
 21 22  1  0
 21  3  1  0
 18  7  2  0
 15  9  1  0
  1 23  1  0
  1 24  1  0
  1 25  1  0
  2 26  1  0
  2 27  1  0
  4 28  1  0
  5 29  1  0
 10 30  1  0
 11 31  1  0
 12 32  1  0
 14 33  1  0
 19 34  1  0
 20 35  1  0
 22 36  1  0
 22 37  1  0
 22 38  1  0
M  END
>  <meeko>  (5) 
{"is_sidechain": [false], "free_energy": -7.229, "intermolecular_energy": -8.439, "internal_energy": -0.308}

$$$$
cand_042_out
     RDKit          3D

 38 40  0  0  0  0  0  0  0  0999 V2000
  175.5310   17.8300   46.3490 C   0  0  0  0  0  0  0  0  0  0  0  0
  176.6780   18.8290   46.3370 C   0  0  0  0  0  0  0  0  0  0  0  0
  176.5470   19.8550   47.4410 C   0  0  0  0  0  0  0  0  0  0  0  0
  175.4820   19.7280   48.3470 C   0  0  0  0  0  0  0  0  0  0  0  0
  175.3020   20.6500   49.3810 C   0  0  0  0  0  0  0  0  0  0  0  0
  176.1850   21.7210   49.5430 C   0  0  0  0  0  0  0  0  0  0  0  0
  176.0050   22.7250   50.6140 C   0  0  0  0  0  0  0  0  0  0  0  0
  175.5410   23.9460   50.1380 O   0  0  0  0  0  0  0  0  0  0  0  0
  175.3310   24.9670   51.0270 C   0  0  0  0  0  0  0  0  0  0  0  0
  174.8510   26.1710   50.5070 C   0  0  0  0  0  0  0  0  0  0  0  0
  174.6160   27.2530   51.3580 C   0  0  0  0  0  0  0  0  0  0  0  0
  174.8610   27.1330   52.7280 C   0  0  0  0  0  0  0  0  0  0  0  0
  175.3390   25.9300   53.2440 C   0  0  0  0  0  0  0  0  0  0  0  0
  175.5580   25.8810   54.5930 O   0  0  0  0  0  0  0  0  0  0  0  0
  175.5730   24.8470   52.3920 C   0  0  0  0  0  0  0  0  0  0  0  0
  176.0750   23.5680   52.8920 C   0  0  0  0  0  0  0  0  0  0  0  0
  176.3220   23.3860   54.0840 O   0  0  0  0  0  0  0  0  0  0  0  0
  176.2830   22.4810   51.9080 C   0  0  0  0  0  0  0  0  0  0  0  0
  176.7700   21.2800   52.3910 O   0  0  0  0  0  0  0  0  0  0  0  0
  177.2410   21.8570   48.6270 C   0  0  0  0  0  0  0  0  0  0  0  0
  177.4320   20.9420   47.5750 C   0  0  0  0  0  0  0  0  0  0  0  0
  178.5950   21.1410   46.6440 C   0  0  0  0  0  0  0  0  0  0  0  0
  175.2607   17.5946   47.3890 H   0  0  0  0  0  0  0  0  0  0  0  0
  174.6615   18.2638   45.8334 H   0  0  0  0  0  0  0  0  0  0  0  0
  175.8413   16.9092   45.8334 H   0  0  0  0  0  0  0  0  0  0  0  0
  177.6247   18.2845   46.4686 H   0  0  0  0  0  0  0  0  0  0  0  0
  176.6556   19.3608   45.3743 H   0  0  0  0  0  0  0  0  0  0  0  0
  174.7782   18.8893   48.2410 H   0  0  0  0  0  0  0  0  0  0  0  0
  174.4566   20.5318   50.0748 H   0  0  0  0  0  0  0  0  0  0  0  0
  174.6583   26.2669   49.4283 H   0  0  0  0  0  0  0  0  0  0  0  0
  174.2374   28.2013   50.9489 H   0  0  0  0  0  0  0  0  0  0  0  0
  174.6771   27.9859   53.3978 H   0  0  0  0  0  0  0  0  0  0  0  0
  175.8940   26.6330   55.0410 H   0  0  0  0  0  0  0  0  0  0  0  0
  177.6820   21.1850   52.5760 H   0  0  0  0  0  0  0  0  0  0  0  0
  177.9375   22.7015   48.7348 H   0  0  0  0  0  0  0  0  0  0  0  0
  179.5119   21.2979   47.2310 H   0  0  0  0  0  0  0  0  0  0  0  0
  178.7136   20.2501   46.0098 H   0  0  0  0  0  0  0  0  0  0  0  0
  178.4106   22.0207   46.0098 H   0  0  0  0  0  0  0  0  0  0  0  0
  1  2  1  0
  2  3  1  0
  3  4  2  0
  4  5  1  0
  5  6  2  0
  6  7  1  0
  7  8  1  0
  8  9  1  0
  9 10  2  0
 10 11  1  0
 11 12  2  0
 12 13  1  0
 13 14  1  0
 13 15  2  0
 15 16  1  0
 16 17  2  0
 16 18  1  0
 18 19  1  0
  6 20  1  0
 20 21  2  0
 21 22  1  0
 21  3  1  0
 18  7  2  0
 15  9  1  0
  1 23  1  0
  1 24  1  0
  1 25  1  0
  2 26  1  0
  2 27  1  0
  4 28  1  0
  5 29  1  0
 10 30  1  0
 11 31  1  0
 12 32  1  0
 14 33  1  0
 19 34  1  0
 20 35  1  0
 22 36  1  0
 22 37  1  0
 22 38  1  0
M  END
>  <meeko>  (6) 
{"is_sidechain": [false], "free_energy": -7.215, "intermolecular_energy": -8.309, "internal_energy": -0.421}

$$$$
cand_042_out
     RDKit          3D

 38 40  0  0  0  0  0  0  0  0999 V2000
  186.0110   23.0600   49.0200 C   0  0  0  0  0  0  0  0  0  0  0  0
  185.0770   23.4320   47.8780 C   0  0  0  0  0  0  0  0  0  0  0  0
  183.6380   23.0860   48.1880 C   0  0  0  0  0  0  0  0  0  0  0  0
  183.3600   21.8340   48.7600 C   0  0  0  0  0  0  0  0  0  0  0  0
  182.0500   21.4530   49.0590 C   0  0  0  0  0  0  0  0  0  0  0  0
  180.9800   22.3140   48.8010 C   0  0  0  0  0  0  0  0  0  0  0  0
  179.5820   21.9270   49.0850 C   0  0  0  0  0  0  0  0  0  0  0  0
  178.8550   21.6430   47.9350 O   0  0  0  0  0  0  0  0  0  0  0  0
  177.5420   21.2700   48.0550 C   0  0  0  0  0  0  0  0  0  0  0  0
  176.8550   20.9800   46.8760 C   0  0  0  0  0  0  0  0  0  0  0  0
  175.5130   20.5950   46.9280 C   0  0  0  0  0  0  0  0  0  0  0  0
  174.8580   20.5010   48.1580 C   0  0  0  0  0  0  0  0  0  0  0  0
  175.5470   20.7910   49.3330 C   0  0  0  0  0  0  0  0  0  0  0  0
  174.8450   20.6800   50.5020 O   0  0  0  0  0  0  0  0  0  0  0  0
  176.8900   21.1750   49.2810 C   0  0  0  0  0  0  0  0  0  0  0  0
  177.6490   21.4890   50.4920 C   0  0  0  0  0  0  0  0  0  0  0  0
  177.1410   21.4360   51.6100 O   0  0  0  0  0  0  0  0  0  0  0  0
  179.0680   21.8780   50.3280 C   0  0  0  0  0  0  0  0  0  0  0  0
  179.7720   22.1840   51.4790 O   0  0  0  0  0  0  0  0  0  0  0  0
  181.2560   23.5600   48.2140 C   0  0  0  0  0  0  0  0  0  0  0  0
  182.5690   23.9560   47.8990 C   0  0  0  0  0  0  0  0  0  0  0  0
  182.7890   25.3130   47.2880 C   0  0  0  0  0  0  0  0  0  0  0  0
  185.5129   23.2584   49.9805 H   0  0  0  0  0  0  0  0  0  0  0  0
  186.2654   21.9919   48.9526 H   0  0  0  0  0  0  0  0  0  0  0  0
  186.9300   23.6607   48.9526 H   0  0  0  0  0  0  0  0  0  0  0  0
  185.1510   24.5145   47.6969 H   0  0  0  0  0  0  0  0  0  0  0  0
  185.3808   22.8585   46.9899 H   0  0  0  0  0  0  0  0  0  0  0  0
  184.1874   21.1421   48.9761 H   0  0  0  0  0  0  0  0  0  0  0  0
  181.8585   20.4647   49.5023 H   0  0  0  0  0  0  0  0  0  0  0  0
  177.3693   21.0544   45.9065 H   0  0  0  0  0  0  0  0  0  0  0  0
  174.9713   20.3655   45.9986 H   0  0  0  0  0  0  0  0  0  0  0  0
  173.8011   20.1988   48.1985 H   0  0  0  0  0  0  0  0  0  0  0  0
  175.2280   20.9690   51.3070 H   0  0  0  0  0  0  0  0  0  0  0  0
  179.4650   22.8580   52.0510 H   0  0  0  0  0  0  0  0  0  0  0  0
  180.4233   24.2445   47.9947 H   0  0  0  0  0  0  0  0  0  0  0  0
  182.9100   26.0595   48.0868 H   0  0  0  0  0  0  0  0  0  0  0  0
  183.6955   25.2921   46.6652 H   0  0  0  0  0  0  0  0  0  0  0  0
  181.9223   25.5796   46.6652 H   0  0  0  0  0  0  0  0  0  0  0  0
  1  2  1  0
  2  3  1  0
  3  4  2  0
  4  5  1  0
  5  6  2  0
  6  7  1  0
  7  8  1  0
  8  9  1  0
  9 10  2  0
 10 11  1  0
 11 12  2  0
 12 13  1  0
 13 14  1  0
 13 15  2  0
 15 16  1  0
 16 17  2  0
 16 18  1  0
 18 19  1  0
  6 20  1  0
 20 21  2  0
 21 22  1  0
 21  3  1  0
 18  7  2  0
 15  9  1  0
  1 23  1  0
  1 24  1  0
  1 25  1  0
  2 26  1  0
  2 27  1  0
  4 28  1  0
  5 29  1  0
 10 30  1  0
 11 31  1  0
 12 32  1  0
 14 33  1  0
 19 34  1  0
 20 35  1  0
 22 36  1  0
 22 37  1  0
 22 38  1  0
M  END
>  <meeko>  (7) 
{"is_sidechain": [false], "free_energy": -7.139, "intermolecular_energy": -8.21, "internal_energy": -0.432}

$$$$
cand_042_out
     RDKit          3D

 38 40  0  0  0  0  0  0  0  0999 V2000
  175.8800   19.0970   47.3290 C   0  0  0  0  0  0  0  0  0  0  0  0
  176.5550   19.9970   46.3060 C   0  0  0  0  0  0  0  0  0  0  0  0
  177.8790   20.5300   46.8060 C   0  0  0  0  0  0  0  0  0  0  0  0
  179.0200   19.7240   46.6650 C   0  0  0  0  0  0  0  0  0  0  0  0
  180.2690   20.1560   47.1160 C   0  0  0  0  0  0  0  0  0  0  0  0
  180.4150   21.4090   47.7170 C   0  0  0  0  0  0  0  0  0  0  0  0
  181.7200   21.8830   48.2250 C   0  0  0  0  0  0  0  0  0  0  0  0
  182.5400   22.3870   47.2230 O   0  0  0  0  0  0  0  0  0  0  0  0
  183.7820   22.8610   47.5580 C   0  0  0  0  0  0  0  0  0  0  0  0
  184.5660   23.3710   46.5220 C   0  0  0  0  0  0  0  0  0  0  0  0
  185.8430   23.8680   46.7950 C   0  0  0  0  0  0  0  0  0  0  0  0
  186.3350   23.8560   48.1020 C   0  0  0  0  0  0  0  0  0  0  0  0
  185.5500   23.3460   49.1330 C   0  0  0  0  0  0  0  0  0  0  0  0
  186.0940   23.3630   50.3880 O   0  0  0  0  0  0  0  0  0  0  0  0
  184.2720   22.8490   48.8600 C   0  0  0  0  0  0  0  0  0  0  0  0
  183.4160   22.3050   49.9140 C   0  0  0  0  0  0  0  0  0  0  0  0
  183.7810   22.2530   51.0880 O   0  0  0  0  0  0  0  0  0  0  0  0
  182.0770   21.8110   49.5210 C   0  0  0  0  0  0  0  0  0  0  0  0
  181.2810   21.2870   50.5240 O   0  0  0  0  0  0  0  0  0  0  0  0
  179.2720   22.2100   47.8720 C   0  0  0  0  0  0  0  0  0  0  0  0
  178.0050   21.7860   47.4300 C   0  0  0  0  0  0  0  0  0  0  0  0
  176.8280   22.7050   47.6140 C   0  0  0  0  0  0  0  0  0  0  0  0
  176.1359   19.4382   48.3430 H   0  0  0  0  0  0  0  0  0  0  0  0
  174.7894   19.1398   47.1920 H   0  0  0  0  0  0  0  0  0  0  0  0
  176.2264   18.0620   47.1920 H   0  0  0  0  0  0  0  0  0  0  0  0
  176.7292   19.4202   45.3857 H   0  0  0  0  0  0  0  0  0  0  0  0
  175.8924   20.8549   46.1187 H   0  0  0  0  0  0  0  0  0  0  0  0
  178.9285   18.7355   46.1912 H   0  0  0  0  0  0  0  0  0  0  0  0
  181.1465   19.5035   46.9970 H   0  0  0  0  0  0  0  0  0  0  0  0
  184.1792   23.3817   45.4923 H   0  0  0  0  0  0  0  0  0  0  0  0
  186.4619   24.2694   45.9790 H   0  0  0  0  0  0  0  0  0  0  0  0
  187.3400   24.2484   48.3165 H   0  0  0  0  0  0  0  0  0  0  0  0
  186.9610   23.0380   50.5270 H   0  0  0  0  0  0  0  0  0  0  0  0
  181.5680   21.3200   51.4150 H   0  0  0  0  0  0  0  0  0  0  0  0
  179.3696   23.1951   48.3517 H   0  0  0  0  0  0  0  0  0  0  0  0
  176.6411   22.8509   48.6881 H   0  0  0  0  0  0  0  0  0  0  0  0
  177.0439   23.6759   47.1442 H   0  0  0  0  0  0  0  0  0  0  0  0
  175.9384   22.2601   47.1442 H   0  0  0  0  0  0  0  0  0  0  0  0
  1  2  1  0
  2  3  1  0
  3  4  2  0
  4  5  1  0
  5  6  2  0
  6  7  1  0
  7  8  1  0
  8  9  1  0
  9 10  2  0
 10 11  1  0
 11 12  2  0
 12 13  1  0
 13 14  1  0
 13 15  2  0
 15 16  1  0
 16 17  2  0
 16 18  1  0
 18 19  1  0
  6 20  1  0
 20 21  2  0
 21 22  1  0
 21  3  1  0
 18  7  2  0
 15  9  1  0
  1 23  1  0
  1 24  1  0
  1 25  1  0
  2 26  1  0
  2 27  1  0
  4 28  1  0
  5 29  1  0
 10 30  1  0
 11 31  1  0
 12 32  1  0
 14 33  1  0
 19 34  1  0
 20 35  1  0
 22 36  1  0
 22 37  1  0
 22 38  1  0
M  END
>  <meeko>  (8) 
{"is_sidechain": [false], "free_energy": -7.127, "intermolecular_energy": -8.166, "internal_energy": -0.46}

$$$$
cand_042_out
     RDKit          3D

 38 40  0  0  0  0  0  0  0  0999 V2000
  169.9820   26.4950   51.7590 C   0  0  0  0  0  0  0  0  0  0  0  0
  170.2070   25.0160   52.0360 C   0  0  0  0  0  0  0  0  0  0  0  0
  171.4170   24.4800   51.3040 C   0  0  0  0  0  0  0  0  0  0  0  0
  171.4300   24.5420   49.9010 C   0  0  0  0  0  0  0  0  0  0  0  0
  172.5140   24.0540   49.1680 C   0  0  0  0  0  0  0  0  0  0  0  0
  173.6190   23.4960   49.8160 C   0  0  0  0  0  0  0  0  0  0  0  0
  174.7690   22.9490   49.0650 C   0  0  0  0  0  0  0  0  0  0  0  0
  174.5480   21.6580   48.6000 O   0  0  0  0  0  0  0  0  0  0  0  0
  175.5360   21.0320   47.8870 C   0  0  0  0  0  0  0  0  0  0  0  0
  175.2660   19.7420   47.4280 C   0  0  0  0  0  0  0  0  0  0  0  0
  176.2300   19.0460   46.6950 C   0  0  0  0  0  0  0  0  0  0  0  0
  177.4650   19.6390   46.4220 C   0  0  0  0  0  0  0  0  0  0  0  0
  177.7310   20.9270   46.8810 C   0  0  0  0  0  0  0  0  0  0  0  0
  178.9600   21.4470   46.5790 O   0  0  0  0  0  0  0  0  0  0  0  0
  176.7660   21.6230   47.6130 C   0  0  0  0  0  0  0  0  0  0  0  0
  177.0060   22.9770   48.1140 C   0  0  0  0  0  0  0  0  0  0  0  0
  178.0700   23.5630   47.9210 O   0  0  0  0  0  0  0  0  0  0  0  0
  175.9150   23.6300   48.8730 C   0  0  0  0  0  0  0  0  0  0  0  0
  176.1580   24.9040   49.3510 O   0  0  0  0  0  0  0  0  0  0  0  0
  173.5990   23.4190   51.2180 C   0  0  0  0  0  0  0  0  0  0  0  0
  172.5120   23.8990   51.9710 C   0  0  0  0  0  0  0  0  0  0  0  0
  172.5690   23.8000   53.4710 C   0  0  0  0  0  0  0  0  0  0  0  0
  169.8994   27.0381   52.7120 H   0  0  0  0  0  0  0  0  0  0  0  0
  170.8299   26.8932   51.1824 H   0  0  0  0  0  0  0  0  0  0  0  0
  169.0540   26.6230   51.1824 H   0  0  0  0  0  0  0  0  0  0  0  0
  170.3549   24.8757   53.1169 H   0  0  0  0  0  0  0  0  0  0  0  0
  169.3235   24.4656   51.6804 H   0  0  0  0  0  0  0  0  0  0  0  0
  170.5725   24.9820   49.3709 H   0  0  0  0  0  0  0  0  0  0  0  0
  172.4977   24.1095   48.0695 H   0  0  0  0  0  0  0  0  0  0  0  0
  174.2944   19.2735   47.6434 H   0  0  0  0  0  0  0  0  0  0  0  0
  176.0164   18.0297   46.3323 H   0  0  0  0  0  0  0  0  0  0  0  0
  178.2251   19.0905   45.8463 H   0  0  0  0  0  0  0  0  0  0  0  0
  179.4100   21.9790   47.2050 H   0  0  0  0  0  0  0  0  0  0  0  0
  176.6010   25.0210   50.1680 H   0  0  0  0  0  0  0  0  0  0  0  0
  174.4565   22.9712   51.7416 H   0  0  0  0  0  0  0  0  0  0  0  0
  172.0669   24.6720   53.9154 H   0  0  0  0  0  0  0  0  0  0  0  0
  172.0626   22.8796   53.7972 H   0  0  0  0  0  0  0  0  0  0  0  0
  173.6192   23.7760   53.7972 H   0  0  0  0  0  0  0  0  0  0  0  0
  1  2  1  0
  2  3  1  0
  3  4  2  0
  4  5  1  0
  5  6  2  0
  6  7  1  0
  7  8  1  0
  8  9  1  0
  9 10  2  0
 10 11  1  0
 11 12  2  0
 12 13  1  0
 13 14  1  0
 13 15  2  0
 15 16  1  0
 16 17  2  0
 16 18  1  0
 18 19  1  0
  6 20  1  0
 20 21  2  0
 21 22  1  0
 21  3  1  0
 18  7  2  0
 15  9  1  0
  1 23  1  0
  1 24  1  0
  1 25  1  0
  2 26  1  0
  2 27  1  0
  4 28  1  0
  5 29  1  0
 10 30  1  0
 11 31  1  0
 12 32  1  0
 14 33  1  0
 19 34  1  0
 20 35  1  0
 22 36  1  0
 22 37  1  0
 22 38  1  0
M  END
>  <meeko>  (9) 
{"is_sidechain": [false], "free_energy": -6.97, "intermolecular_energy": -7.975, "internal_energy": -0.467}

$$$$
