cand_006_out
     RDKit          3D

 47 50  0  0  0  0  0  0  0  0999 V2000
  176.5110   18.6200   46.2300 C   0  0  0  0  0  0  0  0  0  0  0  0
  176.4040   19.6550   47.3180 C   0  0  0  0  0  0  0  0  0  0  0  0
  175.1710   19.8810   47.9430 C   0  0  0  0  0  0  0  0  0  0  0  0
  175.0500   20.8330   48.9560 C   0  0  0  0  0  0  0  0  0  0  0  0
  176.1600   21.5770   49.3720 C   0  0  0  0  0  0  0  0  0  0  0  0
  176.0070   22.5990   50.4300 C   0  0  0  0  0  0  0  0  0  0  0  0
  175.5000   23.8020   49.9500 O   0  0  0  0  0  0  0  0  0  0  0  0
  175.3060   24.8380   50.8260 C   0  0  0  0  0  0  0  0  0  0  0  0
  174.8100   26.0310   50.2980 C   0  0  0  0  0  0  0  0  0  0  0  0
  174.5890   27.1260   51.1360 C   0  0  0  0  0  0  0  0  0  0  0  0
  174.8620   27.0270   52.5020 C   0  0  0  0  0  0  0  0  0  0  0  0
  175.3560   25.8360   53.0270 C   0  0  0  0  0  0  0  0  0  0  0  0
  175.6010   25.8080   54.3730 O   0  0  0  0  0  0  0  0  0  0  0  0
  175.5790   24.7410   52.1870 C   0  0  0  0  0  0  0  0  0  0  0  0
  176.0970   23.4710   52.6980 C   0  0  0  0  0  0  0  0  0  0  0  0
  176.3550   23.3040   53.8880 O   0  0  0  0  0  0  0  0  0  0  0  0
  176.3050   22.3750   51.7230 C   0  0  0  0  0  0  0  0  0  0  0  0
  176.7830   21.1760   52.2200 O   0  0  0  0  0  0  0  0  0  0  0  0
  177.3900   21.3560   48.7360 C   0  0  0  0  0  0  0  0  0  0  0  0
  177.5330   20.3990   47.7140 C   0  0  0  0  0  0  0  0  0  0  0  0
  178.7720   20.1590   47.0760 N   0  0  0  0  0  0  0  0  0  0  0  0
  179.9140   20.5680   47.9100 C   0  0  0  0  0  0  0  0  0  0  0  0
  181.2070   20.0710   47.2630 C   0  0  0  0  0  0  0  0  0  0  0  0
  181.3300   20.5670   45.8220 C   0  0  0  0  0  0  0  0  0  0  0  0
  180.0820   20.2100   45.0140 C   0  0  0  0  0  0  0  0  0  0  0  0
  178.8140   20.7050   45.7100 C   0  0  0  0  0  0  0  0  0  0  0  0
  176.6141   17.6224   46.6818 H   0  0  0  0  0  0  0  0  0  0  0  0
  175.6051   18.6483   45.6066 H   0  0  0  0  0  0  0  0  0  0  0  0
  177.3919   18.8330   45.6066 H   0  0  0  0  0  0  0  0  0  0  0  0
  174.2889   19.3020   47.6320 H   0  0  0  0  0  0  0  0  0  0  0  0
  174.0727   21.0003   49.4322 H   0  0  0  0  0  0  0  0  0  0  0  0
  174.5933   26.1086   49.2224 H   0  0  0  0  0  0  0  0  0  0  0  0
  174.1997   28.0669   50.7200 H   0  0  0  0  0  0  0  0  0  0  0  0
  174.6869   27.8891   53.1624 H   0  0  0  0  0  0  0  0  0  0  0  0
  175.1190   25.2260   54.9240 H   0  0  0  0  0  0  0  0  0  0  0  0
  177.6640   20.9130   52.0410 H   0  0  0  0  0  0  0  0  0  0  0  0
  178.2659   21.9459   49.0439 H   0  0  0  0  0  0  0  0  0  0  0  0
  179.9390   21.6649   47.9886 H   0  0  0  0  0  0  0  0  0  0  0  0
  179.8124   20.1359   48.9165 H   0  0  0  0  0  0  0  0  0  0  0  0
  182.0644   20.4410   47.8443 H   0  0  0  0  0  0  0  0  0  0  0  0
  181.1911   18.9712   47.2528 H   0  0  0  0  0  0  0  0  0  0  0  0
  181.4557   21.6598   45.8267 H   0  0  0  0  0  0  0  0  0  0  0  0
  182.2008   20.0823   45.3565 H   0  0  0  0  0  0  0  0  0  0  0  0
  180.1518   20.6769   44.0205 H   0  0  0  0  0  0  0  0  0  0  0  0
  180.0259   19.1151   44.9242 H   0  0  0  0  0  0  0  0  0  0  0  0
  178.8219   21.8042   45.7524 H   0  0  0  0  0  0  0  0  0  0  0  0
  177.9284   20.3713   45.1494 H   0  0  0  0  0  0  0  0  0  0  0  0
  1  2  1  0
  2  3  2  0
  3  4  1  0
  4  5  2  0
  5  6  1  0
  6  7  1  0
  7  8  1  0
  8  9  2  0
  9 10  1  0
 10 11  2  0
 11 12  1  0
 12 13  1  0
 12 14  2  0
 14 15  1  0
 15 16  2  0
 15 17  1  0
 17 18  1  0
  5 19  1  0
 19 20  2  0
 20 21  1  0
 21 22  1  0
 22 23  1  0
 23 24  1  0
 24 25  1  0
 25 26  1  0
 20  2  1  0
 26 21  1  0
 17  6  2  0
 14  8  1  0
  1 27  1  0
  1 28  1  0
  1 29  1  0
  3 30  1  0
  4 31  1  0
  9 32  1  0
 10 33  1  0
 11 34  1  0
 13 35  1  0
 18 36  1  0
 19 37  1  0
 22 38  1  0
 22 39  1  0
 23 40  1  0
 23 41  1  0
 24 42  1  0
 24 43  1  0
 25 44  1  0
 25 45  1  0
 26 46  1  0
 26 47  1  0
M  END
>  <meeko>  (1) 
{"is_sidechain": [false], "free_energy": -8.12, "intermolecular_energy": -9.544, "internal_energy": -0.426}

$$$$
cand_006_out
     RDKit          3D

 47 50  0  0  0  0  0  0  0  0999 V2000
  177.0300   20.3030   46.0630 C   0  0  0  0  0  0  0  0  0  0  0  0
  178.2910   20.8390   46.6850 C   0  0  0  0  0  0  0  0  0  0  0  0
  179.5320   20.5450   46.1040 C   0  0  0  0  0  0  0  0  0  0  0  0
  180.7130   21.0340   46.6620 C   0  0  0  0  0  0  0  0  0  0  0  0
  180.6830   21.8340   47.8110 C   0  0  0  0  0  0  0  0  0  0  0  0
  181.9470   22.3220   48.4010 C   0  0  0  0  0  0  0  0  0  0  0  0
  182.5390   23.3330   47.6520 O   0  0  0  0  0  0  0  0  0  0  0  0
  183.7190   23.8780   48.0880 C   0  0  0  0  0  0  0  0  0  0  0  0
  184.2850   24.8800   47.2970 C   0  0  0  0  0  0  0  0  0  0  0  0
  185.4860   25.4780   47.6840 C   0  0  0  0  0  0  0  0  0  0  0  0
  186.1200   25.0760   48.8610 C   0  0  0  0  0  0  0  0  0  0  0  0
  185.5540   24.0770   49.6490 C   0  0  0  0  0  0  0  0  0  0  0  0
  186.2280   23.7330   50.7880 O   0  0  0  0  0  0  0  0  0  0  0  0
  184.3530   23.4770   49.2600 C   0  0  0  0  0  0  0  0  0  0  0  0
  183.7240   22.4250   50.0590 C   0  0  0  0  0  0  0  0  0  0  0  0
  184.2170   22.0210   51.1100 O   0  0  0  0  0  0  0  0  0  0  0  0
  182.4550   21.8490   49.5550 C   0  0  0  0  0  0  0  0  0  0  0  0
  181.8630   20.8640   50.3250 O   0  0  0  0  0  0  0  0  0  0  0  0
  179.4400   22.1160   48.3960 C   0  0  0  0  0  0  0  0  0  0  0  0
  178.2380   21.6340   47.8470 C   0  0  0  0  0  0  0  0  0  0  0  0
  176.9790   21.9250   48.4230 N   0  0  0  0  0  0  0  0  0  0  0  0
  176.8680   23.3350   48.8320 C   0  0  0  0  0  0  0  0  0  0  0  0
  175.4190   23.6270   49.2250 C   0  0  0  0  0  0  0  0  0  0  0  0
  174.9360   22.6650   50.3100 C   0  0  0  0  0  0  0  0  0  0  0  0
  175.1600   21.2120   49.8900 C   0  0  0  0  0  0  0  0  0  0  0  0
  176.6140   20.9720   49.4830 C   0  0  0  0  0  0  0  0  0  0  0  0
  176.3282   20.0047   46.8558 H   0  0  0  0  0  0  0  0  0  0  0  0
  176.5686   21.0828   45.4393 H   0  0  0  0  0  0  0  0  0  0  0  0
  177.2713   19.4297   45.4393 H   0  0  0  0  0  0  0  0  0  0  0  0
  179.5751   19.9221   45.1984 H   0  0  0  0  0  0  0  0  0  0  0  0
  181.6781   20.7887   46.1947 H   0  0  0  0  0  0  0  0  0  0  0  0
  183.7853   25.1979   46.3700 H   0  0  0  0  0  0  0  0  0  0  0  0
  185.9330   26.2666   47.0609 H   0  0  0  0  0  0  0  0  0  0  0  0
  187.0658   25.5479   49.1657 H   0  0  0  0  0  0  0  0  0  0  0  0
  186.0820   22.8970   51.1840 H   0  0  0  0  0  0  0  0  0  0  0  0
  181.2030   21.0910   50.9490 H   0  0  0  0  0  0  0  0  0  0  0  0
  179.4041   22.7301   49.3079 H   0  0  0  0  0  0  0  0  0  0  0  0
  177.5282   23.5227   49.6916 H   0  0  0  0  0  0  0  0  0  0  0  0
  177.1658   23.9882   47.9986 H   0  0  0  0  0  0  0  0  0  0  0  0
  175.3505   24.6577   49.6030 H   0  0  0  0  0  0  0  0  0  0  0  0
  174.7841   23.4968   48.3362 H   0  0  0  0  0  0  0  0  0  0  0  0
  175.4919   22.8612   51.2387 H   0  0  0  0  0  0  0  0  0  0  0  0
  173.8588   22.8236   50.4662 H   0  0  0  0  0  0  0  0  0  0  0  0
  174.9100   20.5520   50.7337 H   0  0  0  0  0  0  0  0  0  0  0  0
  174.5160   20.9963   49.0247 H   0  0  0  0  0  0  0  0  0  0  0  0
  177.2698   21.1200   50.3537 H   0  0  0  0  0  0  0  0  0  0  0  0
  176.7311   19.9426   49.1133 H   0  0  0  0  0  0  0  0  0  0  0  0
  1  2  1  0
  2  3  2  0
  3  4  1  0
  4  5  2  0
  5  6  1  0
  6  7  1  0
  7  8  1  0
  8  9  2  0
  9 10  1  0
 10 11  2  0
 11 12  1  0
 12 13  1  0
 12 14  2  0
 14 15  1  0
 15 16  2  0
 15 17  1  0
 17 18  1  0
  5 19  1  0
 19 20  2  0
 20 21  1  0
 21 22  1  0
 22 23  1  0
 23 24  1  0
 24 25  1  0
 25 26  1  0
 20  2  1  0
 26 21  1  0
 17  6  2  0
 14  8  1  0
  1 27  1  0
  1 28  1  0
  1 29  1  0
  3 30  1  0
  4 31  1  0
  9 32  1  0
 10 33  1  0
 11 34  1  0
 13 35  1  0
 18 36  1  0
 19 37  1  0
 22 38  1  0
 22 39  1  0
 23 40  1  0
 23 41  1  0
 24 42  1  0
 24 43  1  0
 25 44  1  0
 25 45  1  0
 26 46  1  0
 26 47  1  0
M  END
>  <meeko>  (2) 
{"is_sidechain": [false], "free_energy": -7.666, "intermolecular_energy": -8.785, "internal_energy": -0.652}

$$$$
cand_006_out
     RDKit          3D

 47 50  0  0  0  0  0  0  0  0999 V2000
  181.4770   20.7860   45.9740 C   0  0  0  0  0  0  0  0  0  0  0  0
  180.4600   21.2330   46.9900 C   0  0  0  0  0  0  0  0  0  0  0  0
  179.2210   20.5840   47.0650 C   0  0  0  0  0  0  0  0  0  0  0  0
  178.2650   20.9800   48.0020 C   0  0  0  0  0  0  0  0  0  0  0  0
  178.5280   22.0290   48.8900 C   0  0  0  0  0  0  0  0  0  0  0  0
  177.4930   22.4510   49.8580 C   0  0  0  0  0  0  0  0  0  0  0  0
  176.3780   23.0140   49.2470 O   0  0  0  0  0  0  0  0  0  0  0  0
  175.3390   23.4470   50.0300 C   0  0  0  0  0  0  0  0  0  0  0  0
  174.2480   24.0190   49.3740 C   0  0  0  0  0  0  0  0  0  0  0  0
  173.1560   24.4810   50.1120 C   0  0  0  0  0  0  0  0  0  0  0  0
  173.1550   24.3700   51.5040 C   0  0  0  0  0  0  0  0  0  0  0  0
  174.2450   23.7980   52.1560 C   0  0  0  0  0  0  0  0  0  0  0  0
  174.1780   23.7200   53.5200 O   0  0  0  0  0  0  0  0  0  0  0  0
  175.3390   23.3380   51.4160 C   0  0  0  0  0  0  0  0  0  0  0  0
  176.5040   22.7310   52.0610 C   0  0  0  0  0  0  0  0  0  0  0  0
  176.5750   22.5920   53.2810 O   0  0  0  0  0  0  0  0  0  0  0  0
  177.6130   22.2820   51.1880 C   0  0  0  0  0  0  0  0  0  0  0  0
  178.7040   21.6990   51.8080 O   0  0  0  0  0  0  0  0  0  0  0  0
  179.7650   22.6840   48.8040 C   0  0  0  0  0  0  0  0  0  0  0  0
  180.7430   22.2980   47.8680 C   0  0  0  0  0  0  0  0  0  0  0  0
  181.9980   22.9430   47.7830 N   0  0  0  0  0  0  0  0  0  0  0  0
  182.9390   22.4660   48.8110 C   0  0  0  0  0  0  0  0  0  0  0  0
  184.3290   23.0300   48.5150 C   0  0  0  0  0  0  0  0  0  0  0  0
  184.2970   24.5550   48.4160 C   0  0  0  0  0  0  0  0  0  0  0  0
  183.2400   25.0150   47.4120 C   0  0  0  0  0  0  0  0  0  0  0  0
  181.8730   24.4090   47.7320 C   0  0  0  0  0  0  0  0  0  0  0  0
  182.3655   20.3955   46.4918 H   0  0  0  0  0  0  0  0  0  0  0  0
  181.0429   19.9957   45.3439 H   0  0  0  0  0  0  0  0  0  0  0  0
  181.7657   21.6402   45.3439 H   0  0  0  0  0  0  0  0  0  0  0  0
  178.9990   19.7537   46.3785 H   0  0  0  0  0  0  0  0  0  0  0  0
  177.2953   20.4623   48.0427 H   0  0  0  0  0  0  0  0  0  0  0  0
  174.2482   24.1058   48.2774 H   0  0  0  0  0  0  0  0  0  0  0  0
  172.2959   24.9328   49.5962 H   0  0  0  0  0  0  0  0  0  0  0  0
  172.2946   24.7338   52.0849 H   0  0  0  0  0  0  0  0  0  0  0  0
  174.8690   24.0740   54.0430 H   0  0  0  0  0  0  0  0  0  0  0  0
  179.5670   22.0180   51.6350 H   0  0  0  0  0  0  0  0  0  0  0  0
  179.9765   23.5211   49.4856 H   0  0  0  0  0  0  0  0  0  0  0  0
  182.6061   22.8073   49.8023 H   0  0  0  0  0  0  0  0  0  0  0  0
  182.9745   21.3666   48.8004 H   0  0  0  0  0  0  0  0  0  0  0  0
  185.0147   22.7372   49.3237 H   0  0  0  0  0  0  0  0  0  0  0  0
  184.6711   22.6254   47.5510 H   0  0  0  0  0  0  0  0  0  0  0  0
  184.0612   24.9751   49.4049 H   0  0  0  0  0  0  0  0  0  0  0  0
  185.2821   24.9055   48.0743 H   0  0  0  0  0  0  0  0  0  0  0  0
  183.1638   26.1118   47.4484 H   0  0  0  0  0  0  0  0  0  0  0  0
  183.5433   24.6805   46.4089 H   0  0  0  0  0  0  0  0  0  0  0  0
  181.5225   24.7832   48.7052 H   0  0  0  0  0  0  0  0  0  0  0  0
  181.1494   24.6932   46.9538 H   0  0  0  0  0  0  0  0  0  0  0  0
  1  2  1  0
  2  3  2  0
  3  4  1  0
  4  5  2  0
  5  6  1  0
  6  7  1  0
  7  8  1  0
  8  9  2  0
  9 10  1  0
 10 11  2  0
 11 12  1  0
 12 13  1  0
 12 14  2  0
 14 15  1  0
 15 16  2  0
 15 17  1  0
 17 18  1  0
  5 19  1  0
 19 20  2  0
 20 21  1  0
 21 22  1  0
 22 23  1  0
 23 24  1  0
 24 25  1  0
 25 26  1  0
 20  2  1  0
 26 21  1  0
 17  6  2  0
 14  8  1  0
  1 27  1  0
  1 28  1  0
  1 29  1  0
  3 30  1  0
  4 31  1  0
  9 32  1  0
 10 33  1  0
 11 34  1  0
 13 35  1  0
 18 36  1  0
 19 37  1  0
 22 38  1  0
 22 39  1  0
 23 40  1  0
 23 41  1  0
 24 42  1  0
 24 43  1  0
 25 44  1  0
 25 45  1  0
 26 46  1  0
 26 47  1  0
M  END
>  <meeko>  (3) 
{"is_sidechain": [false], "free_energy": -7.646, "intermolecular_energy": -8.723, "internal_energy": -0.69}

$$$$
cand_006_out
     RDKit          3D

 47 50  0  0  0  0  0  0  0  0999 V2000
  174.9490   23.7270   53.1910 C   0  0  0  0  0  0  0  0  0  0  0  0
  175.7270   23.1510   52.0390 C   0  0  0  0  0  0  0  0  0  0  0  0
  176.9030   22.4300   52.2850 C   0  0  0  0  0  0  0  0  0  0  0  0
  177.6380   21.8850   51.2320 C   0  0  0  0  0  0  0  0  0  0  0  0
  177.2110   22.0410   49.9080 C   0  0  0  0  0  0  0  0  0  0  0  0
  178.0170   21.4760   48.8040 C   0  0  0  0  0  0  0  0  0  0  0  0
  179.3000   22.0100   48.7440 O   0  0  0  0  0  0  0  0  0  0  0  0
  180.1560   21.5730   47.7660 C   0  0  0  0  0  0  0  0  0  0  0  0
  181.4280   22.1480   47.7340 C   0  0  0  0  0  0  0  0  0  0  0  0
  182.3480   21.7470   46.7640 C   0  0  0  0  0  0  0  0  0  0  0  0
  181.9980   20.7720   45.8270 C   0  0  0  0  0  0  0  0  0  0  0  0
  180.7290   20.2000   45.8610 C   0  0  0  0  0  0  0  0  0  0  0  0
  180.4540   19.2520   44.9150 O   0  0  0  0  0  0  0  0  0  0  0  0
  179.8070   20.6030   46.8320 C   0  0  0  0  0  0  0  0  0  0  0  0
  178.4640   20.0280   46.9030 C   0  0  0  0  0  0  0  0  0  0  0  0
  178.0830   19.1610   46.1190 O   0  0  0  0  0  0  0  0  0  0  0  0
  177.5600   20.5290   47.9650 C   0  0  0  0  0  0  0  0  0  0  0  0
  176.2970   19.9690   48.0300 O   0  0  0  0  0  0  0  0  0  0  0  0
  176.0400   22.7720   49.6650 C   0  0  0  0  0  0  0  0  0  0  0  0
  175.2840   23.3280   50.7130 C   0  0  0  0  0  0  0  0  0  0  0  0
  174.0940   24.0560   50.4780 N   0  0  0  0  0  0  0  0  0  0  0  0
  173.1850   23.3520   49.5570 C   0  0  0  0  0  0  0  0  0  0  0  0
  171.8390   24.0770   49.5350 C   0  0  0  0  0  0  0  0  0  0  0  0
  172.0120   25.5520   49.1700 C   0  0  0  0  0  0  0  0  0  0  0  0
  173.0370   26.2230   50.0840 C   0  0  0  0  0  0  0  0  0  0  0  0
  174.3570   25.4520   50.0950 C   0  0  0  0  0  0  0  0  0  0  0  0
  175.3976   23.3949   54.1389 H   0  0  0  0  0  0  0  0  0  0  0  0
  174.9748   24.8254   53.1381 H   0  0  0  0  0  0  0  0  0  0  0  0
  173.9059   23.3817   53.1381 H   0  0  0  0  0  0  0  0  0  0  0  0
  177.2504   22.2922   53.3196 H   0  0  0  0  0  0  0  0  0  0  0  0
  178.5621   21.3273   51.4441 H   0  0  0  0  0  0  0  0  0  0  0  0
  181.7045   22.9156   48.4718 H   0  0  0  0  0  0  0  0  0  0  0  0
  183.3503   22.1995   46.7374 H   0  0  0  0  0  0  0  0  0  0  0  0
  182.7240   20.4565   45.0632 H   0  0  0  0  0  0  0  0  0  0  0  0
  180.5090   19.4670   44.0060 H   0  0  0  0  0  0  0  0  0  0  0  0
  175.5780   20.4710   48.3600 H   0  0  0  0  0  0  0  0  0  0  0  0
  175.7033   22.9147   48.6276 H   0  0  0  0  0  0  0  0  0  0  0  0
  173.6171   23.3457   48.5454 H   0  0  0  0  0  0  0  0  0  0  0  0
  173.0430   22.3150   49.8954 H   0  0  0  0  0  0  0  0  0  0  0  0
  171.1852   23.5976   48.7916 H   0  0  0  0  0  0  0  0  0  0  0  0
  171.3939   24.0162   50.5391 H   0  0  0  0  0  0  0  0  0  0  0  0
  172.3551   25.6273   48.1276 H   0  0  0  0  0  0  0  0  0  0  0  0
  171.0445   26.0606   49.2935 H   0  0  0  0  0  0  0  0  0  0  0  0
  173.2222   27.2462   49.7251 H   0  0  0  0  0  0  0  0  0  0  0  0
  172.6339   26.2377   51.1074 H   0  0  0  0  0  0  0  0  0  0  0  0
  174.8089   25.4804   49.0925 H   0  0  0  0  0  0  0  0  0  0  0  0
  175.0490   25.9109   50.8164 H   0  0  0  0  0  0  0  0  0  0  0  0
  1  2  1  0
  2  3  2  0
  3  4  1  0
  4  5  2  0
  5  6  1  0
  6  7  1  0
  7  8  1  0
  8  9  2  0
  9 10  1  0
 10 11  2  0
 11 12  1  0
 12 13  1  0
 12 14  2  0
 14 15  1  0
 15 16  2  0
 15 17  1  0
 17 18  1  0
  5 19  1  0
 19 20  2  0
 20 21  1  0
 21 22  1  0
 22 23  1  0
 23 24  1  0
 24 25  1  0
 25 26  1  0
 20  2  1  0
 26 21  1  0
 17  6  2  0
 14  8  1  0
  1 27  1  0
  1 28  1  0
  1 29  1  0
  3 30  1  0
  4 31  1  0
  9 32  1  0
 10 33  1  0
 11 34  1  0
 13 35  1  0
 18 36  1  0
 19 37  1  0
 22 38  1  0
 22 39  1  0
 23 40  1  0
 23 41  1  0
 24 42  1  0
 24 43  1  0
 25 44  1  0
 25 45  1  0
 26 46  1  0
 26 47  1  0
M  END
>  <meeko>  (4) 
{"is_sidechain": [false], "free_energy": -7.642, "intermolecular_energy": -8.772, "internal_energy": -0.636}

$$$$
cand_006_out
     RDKit          3D

 47 50  0  0  0  0  0  0  0  0999 V2000
  176.4860   22.4310   48.8680 C   0  0  0  0  0  0  0  0  0  0  0  0
  177.3190   21.4570   48.0800 C   0  0  0  0  0  0  0  0  0  0  0  0
  176.6910   20.4860   47.2880 C   0  0  0  0  0  0  0  0  0  0  0  0
  177.4450   19.5760   46.5470 C   0  0  0  0  0  0  0  0  0  0  0  0
  178.8440   19.6180   46.5730 C   0  0  0  0  0  0  0  0  0  0  0  0
  179.6250   18.6290   45.8000 C   0  0  0  0  0  0  0  0  0  0  0  0
  179.0850   17.3490   45.8590 O   0  0  0  0  0  0  0  0  0  0  0  0
  179.7100   16.3320   45.1830 C   0  0  0  0  0  0  0  0  0  0  0  0
  179.1420   15.0620   45.2830 C   0  0  0  0  0  0  0  0  0  0  0  0
  179.7290   13.9820   44.6190 C   0  0  0  0  0  0  0  0  0  0  0  0
  180.8820   14.1740   43.8560 C   0  0  0  0  0  0  0  0  0  0  0  0
  181.4470   15.4420   43.7570 C   0  0  0  0  0  0  0  0  0  0  0  0
  182.5750   15.5590   42.9930 O   0  0  0  0  0  0  0  0  0  0  0  0
  180.8600   16.5220   44.4240 C   0  0  0  0  0  0  0  0  0  0  0  0
  181.4210   17.8720   44.3460 C   0  0  0  0  0  0  0  0  0  0  0  0
  182.4300   18.1210   43.6890 O   0  0  0  0  0  0  0  0  0  0  0  0
  180.7280   18.9450   45.0960 C   0  0  0  0  0  0  0  0  0  0  0  0
  181.2600   20.2190   45.0050 O   0  0  0  0  0  0  0  0  0  0  0  0
  179.4690   20.5840   47.3750 C   0  0  0  0  0  0  0  0  0  0  0  0
  178.7260   21.5120   48.1280 C   0  0  0  0  0  0  0  0  0  0  0  0
  179.3480   22.4980   48.9300 N   0  0  0  0  0  0  0  0  0  0  0  0
  180.2290   23.3780   48.1440 C   0  0  0  0  0  0  0  0  0  0  0  0
  180.6770   24.5470   49.0220 C   0  0  0  0  0  0  0  0  0  0  0  0
  181.3420   24.0510   50.3060 C   0  0  0  0  0  0  0  0  0  0  0  0
  180.4370   23.0630   51.0420 C   0  0  0  0  0  0  0  0  0  0  0  0
  179.9950   21.9270   50.1210 C   0  0  0  0  0  0  0  0  0  0  0  0
  176.6360   22.2556   49.9435 H   0  0  0  0  0  0  0  0  0  0  0  0
  176.7890   23.4585   48.6183 H   0  0  0  0  0  0  0  0  0  0  0  0
  175.4239   22.2910   48.6183 H   0  0  0  0  0  0  0  0  0  0  0  0
  175.5926   20.4411   47.2504 H   0  0  0  0  0  0  0  0  0  0  0  0
  176.9348   18.8172   45.9356 H   0  0  0  0  0  0  0  0  0  0  0  0
  178.2331   14.9110   45.8839 H   0  0  0  0  0  0  0  0  0  0  0  0
  179.2823   12.9798   44.6975 H   0  0  0  0  0  0  0  0  0  0  0  0
  181.3438   13.3235   43.3332 H   0  0  0  0  0  0  0  0  0  0  0  0
  183.0920   16.3380   43.0360 H   0  0  0  0  0  0  0  0  0  0  0  0
  182.0090   20.3750   44.4640 H   0  0  0  0  0  0  0  0  0  0  0  0
  180.5677   20.6171   47.4165 H   0  0  0  0  0  0  0  0  0  0  0  0
  181.1096   22.8118   47.8063 H   0  0  0  0  0  0  0  0  0  0  0  0
  179.6864   23.7591   47.2663 H   0  0  0  0  0  0  0  0  0  0  0  0
  181.3953   25.1626   48.4607 H   0  0  0  0  0  0  0  0  0  0  0  0
  179.7900   25.1376   49.2949 H   0  0  0  0  0  0  0  0  0  0  0  0
  182.2887   23.5518   50.0518 H   0  0  0  0  0  0  0  0  0  0  0  0
  181.5272   24.9142   50.9622 H   0  0  0  0  0  0  0  0  0  0  0  0
  180.9871   22.6397   51.8954 H   0  0  0  0  0  0  0  0  0  0  0  0
  179.5413   23.6009   51.3862 H   0  0  0  0  0  0  0  0  0  0  0  0
  180.8720   21.3369   49.8167 H   0  0  0  0  0  0  0  0  0  0  0  0
  179.2859   21.2742   50.6512 H   0  0  0  0  0  0  0  0  0  0  0  0
  1  2  1  0
  2  3  2  0
  3  4  1  0
  4  5  2  0
  5  6  1  0
  6  7  1  0
  7  8  1  0
  8  9  2  0
  9 10  1  0
 10 11  2  0
 11 12  1  0
 12 13  1  0
 12 14  2  0
 14 15  1  0
 15 16  2  0
 15 17  1  0
 17 18  1  0
  5 19  1  0
 19 20  2  0
 20 21  1  0
 21 22  1  0
 22 23  1  0
 23 24  1  0
 24 25  1  0
 25 26  1  0
 20  2  1  0
 26 21  1  0
 17  6  2  0
 14  8  1  0
  1 27  1  0
  1 28  1  0
  1 29  1  0
  3 30  1  0
  4 31  1  0
  9 32  1  0
 10 33  1  0
 11 34  1  0
 13 35  1  0
 18 36  1  0
 19 37  1  0
 22 38  1  0
 22 39  1  0
 23 40  1  0
 23 41  1  0
 24 42  1  0
 24 43  1  0
 25 44  1  0
 25 45  1  0
 26 46  1  0
 26 47  1  0
M  END
>  <meeko>  (5) 
{"is_sidechain": [false], "free_energy": -7.636, "intermolecular_energy": -8.941, "internal_energy": -0.46}

$$$$
cand_006_out
     RDKit          3D

 47 50  0  0  0  0  0  0  0  0999 V2000
  180.8510   21.3010   50.1700 C   0  0  0  0  0  0  0  0  0  0  0  0
  179.4750   21.9020   50.0620 C   0  0  0  0  0  0  0  0  0  0  0  0
  178.9590   22.6510   51.1280 C   0  0  0  0  0  0  0  0  0  0  0  0
  177.6870   23.2200   51.0480 C   0  0  0  0  0  0  0  0  0  0  0  0
  176.9050   23.0610   49.8990 C   0  0  0  0  0  0  0  0  0  0  0  0
  175.5500   23.6510   49.8430 C   0  0  0  0  0  0  0  0  0  0  0  0
  175.5480   25.0230   50.0720 O   0  0  0  0  0  0  0  0  0  0  0  0
  174.3550   25.6980   50.0470 C   0  0  0  0  0  0  0  0  0  0  0  0
  174.4000   27.0710   50.2960 C   0  0  0  0  0  0  0  0  0  0  0  0
  173.2210   27.8190   50.2860 C   0  0  0  0  0  0  0  0  0  0  0  0
  171.9990   27.1950   50.0250 C   0  0  0  0  0  0  0  0  0  0  0  0
  171.9570   25.8260   49.7760 C   0  0  0  0  0  0  0  0  0  0  0  0
  170.7280   25.2800   49.5280 O   0  0  0  0  0  0  0  0  0  0  0  0
  173.1380   25.0770   49.7890 C   0  0  0  0  0  0  0  0  0  0  0  0
  173.1390   23.6370   49.5320 C   0  0  0  0  0  0  0  0  0  0  0  0
  172.1050   23.0170   49.2880 O   0  0  0  0  0  0  0  0  0  0  0  0
  174.4430   22.9340   49.5760 C   0  0  0  0  0  0  0  0  0  0  0  0
  174.4320   21.5750   49.3190 O   0  0  0  0  0  0  0  0  0  0  0  0
  177.4210   22.3010   48.8390 C   0  0  0  0  0  0  0  0  0  0  0  0
  178.7010   21.7210   48.8990 C   0  0  0  0  0  0  0  0  0  0  0  0
  179.2350   20.9650   47.8300 N   0  0  0  0  0  0  0  0  0  0  0  0
  180.1500   21.7580   46.9920 C   0  0  0  0  0  0  0  0  0  0  0  0
  180.8600   20.8260   46.0090 C   0  0  0  0  0  0  0  0  0  0  0  0
  179.8540   20.0270   45.1810 C   0  0  0  0  0  0  0  0  0  0  0  0
  178.8590   19.2970   46.0840 C   0  0  0  0  0  0  0  0  0  0  0  0
  178.1930   20.2630   47.0650 C   0  0  0  0  0  0  0  0  0  0  0  0
  181.1180   21.1844   51.2307 H   0  0  0  0  0  0  0  0  0  0  0  0
  180.8607   20.3167   49.6791 H   0  0  0  0  0  0  0  0  0  0  0  0
  181.5797   21.9628   49.6791 H   0  0  0  0  0  0  0  0  0  0  0  0
  179.5624   22.7919   52.0369 H   0  0  0  0  0  0  0  0  0  0  0  0
  177.2954   23.7994   51.8971 H   0  0  0  0  0  0  0  0  0  0  0  0
  175.3627   27.5627   50.4997 H   0  0  0  0  0  0  0  0  0  0  0  0
  173.2546   28.9005   50.4838 H   0  0  0  0  0  0  0  0  0  0  0  0
  171.0705   27.7848   50.0162 H   0  0  0  0  0  0  0  0  0  0  0  0
  170.5020   25.0100   48.6610 H   0  0  0  0  0  0  0  0  0  0  0  0
  173.7920   21.2130   48.7400 H   0  0  0  0  0  0  0  0  0  0  0  0
  176.8085   22.1547   47.9371 H   0  0  0  0  0  0  0  0  0  0  0  0
  179.5776   22.5144   46.4350 H   0  0  0  0  0  0  0  0  0  0  0  0
  180.8925   22.2625   47.6277 H   0  0  0  0  0  0  0  0  0  0  0  0
  181.4850   21.4270   45.3322 H   0  0  0  0  0  0  0  0  0  0  0  0
  181.4783   20.1199   46.5827 H   0  0  0  0  0  0  0  0  0  0  0  0
  179.3041   20.7145   44.5215 H   0  0  0  0  0  0  0  0  0  0  0  0
  180.4024   19.2804   44.5878 H   0  0  0  0  0  0  0  0  0  0  0  0
  178.0841   18.8285   45.4595 H   0  0  0  0  0  0  0  0  0  0  0  0
  179.4045   18.5353   46.6603 H   0  0  0  0  0  0  0  0  0  0  0  0
  177.5883   20.9944   46.5088 H   0  0  0  0  0  0  0  0  0  0  0  0
  177.5417   19.7033   47.7524 H   0  0  0  0  0  0  0  0  0  0  0  0
  1  2  1  0
  2  3  2  0
  3  4  1  0
  4  5  2  0
  5  6  1  0
  6  7  1  0
  7  8  1  0
  8  9  2  0
  9 10  1  0
 10 11  2  0
 11 12  1  0
 12 13  1  0
 12 14  2  0
 14 15  1  0
 15 16  2  0
 15 17  1  0
 17 18  1  0
  5 19  1  0
 19 20  2  0
 20 21  1  0
 21 22  1  0
 22 23  1  0
 23 24  1  0
 24 25  1  0
 25 26  1  0
 20  2  1  0
 26 21  1  0
 17  6  2  0
 14  8  1  0
  1 27  1  0
  1 28  1  0
  1 29  1  0
  3 30  1  0
  4 31  1  0
  9 32  1  0
 10 33  1  0
 11 34  1  0
 13 35  1  0
 18 36  1  0
 19 37  1  0
 22 38  1  0
 22 39  1  0
 23 40  1  0
 23 41  1  0
 24 42  1  0
 24 43  1  0
 25 44  1  0
 25 45  1  0
 26 46  1  0
 26 47  1  0
M  END
>  <meeko>  (6) 
{"is_sidechain": [false], "free_energy": -7.605, "intermolecular_energy": -9.026, "internal_energy": -0.339}

$$$$
cand_006_out
     RDKit          3D

 47 50  0  0  0  0  0  0  0  0999 V2000
  185.5390   22.9430   49.3670 C   0  0  0  0  0  0  0  0  0  0  0  0
  184.0610   22.6650   49.3770 C   0  0  0  0  0  0  0  0  0  0  0  0
  183.4300   22.2990   50.5740 C   0  0  0  0  0  0  0  0  0  0  0  0
  182.0600   22.0400   50.6070 C   0  0  0  0  0  0  0  0  0  0  0  0
  181.2850   22.1480   49.4460 C   0  0  0  0  0  0  0  0  0  0  0  0
  179.8380   21.8450   49.4960 C   0  0  0  0  0  0  0  0  0  0  0  0
  179.3080   21.5320   48.2490 O   0  0  0  0  0  0  0  0  0  0  0  0
  177.9750   21.2280   48.1520 C   0  0  0  0  0  0  0  0  0  0  0  0
  177.4830   20.9340   46.8790 C   0  0  0  0  0  0  0  0  0  0  0  0
  176.1340   20.6160   46.7100 C   0  0  0  0  0  0  0  0  0  0  0  0
  175.2780   20.5910   47.8120 C   0  0  0  0  0  0  0  0  0  0  0  0
  175.7700   20.8830   49.0810 C   0  0  0  0  0  0  0  0  0  0  0  0
  174.8770   20.8390   50.1160 O   0  0  0  0  0  0  0  0  0  0  0  0
  177.1210   21.2040   49.2500 C   0  0  0  0  0  0  0  0  0  0  0  0
  177.6790   21.5180   50.5650 C   0  0  0  0  0  0  0  0  0  0  0  0
  176.9920   21.5090   51.5840 O   0  0  0  0  0  0  0  0  0  0  0  0
  179.1210   21.8510   50.6350 C   0  0  0  0  0  0  0  0  0  0  0  0
  179.6410   22.1330   51.8860 O   0  0  0  0  0  0  0  0  0  0  0  0
  181.9210   22.5040   48.2480 C   0  0  0  0  0  0  0  0  0  0  0  0
  183.3020   22.7710   48.1950 C   0  0  0  0  0  0  0  0  0  0  0  0
  183.9490   23.1440   46.9940 N   0  0  0  0  0  0  0  0  0  0  0  0
  183.7780   24.5750   46.6920 C   0  0  0  0  0  0  0  0  0  0  0  0
  184.6880   24.9490   45.5210 C   0  0  0  0  0  0  0  0  0  0  0  0
  184.4190   24.0600   44.3070 C   0  0  0  0  0  0  0  0  0  0  0  0
  184.5080   22.5810   44.6830 C   0  0  0  0  0  0  0  0  0  0  0  0
  183.6020   22.2580   45.8720 C   0  0  0  0  0  0  0  0  0  0  0  0
  185.9061   23.0121   50.4016 H   0  0  0  0  0  0  0  0  0  0  0  0
  186.0620   22.1275   48.8460 H   0  0  0  0  0  0  0  0  0  0  0  0
  185.7299   23.8928   48.8460 H   0  0  0  0  0  0  0  0  0  0  0  0
  184.0219   22.2152   51.4974 H   0  0  0  0  0  0  0  0  0  0  0  0
  181.5836   21.7480   51.5545 H   0  0  0  0  0  0  0  0  0  0  0  0
  178.1573   20.9529   46.0101 H   0  0  0  0  0  0  0  0  0  0  0  0
  175.7455   20.3849   45.7072 H   0  0  0  0  0  0  0  0  0  0  0  0
  174.2153   20.3407   47.6779 H   0  0  0  0  0  0  0  0  0  0  0  0
  175.1850   20.7640   50.9970 H   0  0  0  0  0  0  0  0  0  0  0  0
  179.4110   22.9320   52.3180 H   0  0  0  0  0  0  0  0  0  0  0  0
  181.3254   22.5765   47.3260 H   0  0  0  0  0  0  0  0  0  0  0  0
  182.7300   24.7723   46.4223 H   0  0  0  0  0  0  0  0  0  0  0  0
  184.0427   25.1754   47.5749 H   0  0  0  0  0  0  0  0  0  0  0  0
  184.5052   25.9981   45.2452 H   0  0  0  0  0  0  0  0  0  0  0  0
  185.7333   24.8067   45.8325 H   0  0  0  0  0  0  0  0  0  0  0  0
  183.4114   24.2733   43.9207 H   0  0  0  0  0  0  0  0  0  0  0  0
  185.1780   24.2737   43.5400 H   0  0  0  0  0  0  0  0  0  0  0  0
  184.1991   21.9721   43.8205 H   0  0  0  0  0  0  0  0  0  0  0  0
  185.5470   22.3548   44.9647 H   0  0  0  0  0  0  0  0  0  0  0  0
  182.5511   22.4165   45.5885 H   0  0  0  0  0  0  0  0  0  0  0  0
  183.7413   21.2085   46.1707 H   0  0  0  0  0  0  0  0  0  0  0  0
  1  2  1  0
  2  3  2  0
  3  4  1  0
  4  5  2  0
  5  6  1  0
  6  7  1  0
  7  8  1  0
  8  9  2  0
  9 10  1  0
 10 11  2  0
 11 12  1  0
 12 13  1  0
 12 14  2  0
 14 15  1  0
 15 16  2  0
 15 17  1  0
 17 18  1  0
  5 19  1  0
 19 20  2  0
 20 21  1  0
 21 22  1  0
 22 23  1  0
 23 24  1  0
 24 25  1  0
 25 26  1  0
 20  2  1  0
 26 21  1  0
 17  6  2  0
 14  8  1  0
  1 27  1  0
  1 28  1  0
  1 29  1  0
  3 30  1  0
  4 31  1  0
  9 32  1  0
 10 33  1  0
 11 34  1  0
 13 35  1  0
 18 36  1  0
 19 37  1  0
 22 38  1  0
 22 39  1  0
 23 40  1  0
 23 41  1  0
 24 42  1  0
 24 43  1  0
 25 44  1  0
 25 45  1  0
 26 46  1  0
 26 47  1  0
M  END
>  <meeko>  (7) 
{"is_sidechain": [false], "free_energy": -7.475, "intermolecular_energy": -9.094, "internal_energy": -0.118}

$$$$
cand_006_out
     RDKit          3D

 47 50  0  0  0  0  0  0  0  0999 V2000
  185.0100   22.7380   49.2150 C   0  0  0  0  0  0  0  0  0  0  0  0
  183.5790   22.3810   48.9190 C   0  0  0  0  0  0  0  0  0  0  0  0
  182.7540   21.9060   49.9480 C   0  0  0  0  0  0  0  0  0  0  0  0
  181.4230   21.5720   49.6970 C   0  0  0  0  0  0  0  0  0  0  0  0
  180.8820   21.7120   48.4130 C   0  0  0  0  0  0  0  0  0  0  0  0
  179.4760   21.3300   48.1620 C   0  0  0  0  0  0  0  0  0  0  0  0
  178.5660   22.1480   48.8230 O   0  0  0  0  0  0  0  0  0  0  0  0
  177.2250   21.9050   48.6750 C   0  0  0  0  0  0  0  0  0  0  0  0
  176.3500   22.7430   49.3680 C   0  0  0  0  0  0  0  0  0  0  0  0
  174.9710   22.5500   49.2610 C   0  0  0  0  0  0  0  0  0  0  0  0
  174.4680   21.5230   48.4610 C   0  0  0  0  0  0  0  0  0  0  0  0
  175.3430   20.6890   47.7700 C   0  0  0  0  0  0  0  0  0  0  0  0
  174.7830   19.7030   47.0050 O   0  0  0  0  0  0  0  0  0  0  0  0
  176.7240   20.8810   47.8790 C   0  0  0  0  0  0  0  0  0  0  0  0
  177.6780   20.0280   47.1700 C   0  0  0  0  0  0  0  0  0  0  0  0
  177.3130   19.1070   46.4420 O   0  0  0  0  0  0  0  0  0  0  0  0
  179.1200   20.3100   47.3590 C   0  0  0  0  0  0  0  0  0  0  0  0
  180.0120   19.5050   46.6730 O   0  0  0  0  0  0  0  0  0  0  0  0
  181.7130   22.1780   47.3840 C   0  0  0  0  0  0  0  0  0  0  0  0
  183.0580   22.5210   47.6180 C   0  0  0  0  0  0  0  0  0  0  0  0
  183.8990   23.0050   46.5900 N   0  0  0  0  0  0  0  0  0  0  0  0
  183.7700   24.4600   46.4030 C   0  0  0  0  0  0  0  0  0  0  0  0
  184.8640   24.9390   45.4490 C   0  0  0  0  0  0  0  0  0  0  0  0
  184.8180   24.1750   44.1260 C   0  0  0  0  0  0  0  0  0  0  0  0
  184.8550   22.6650   44.3660 C   0  0  0  0  0  0  0  0  0  0  0  0
  183.7600   22.2350   45.3430 C   0  0  0  0  0  0  0  0  0  0  0  0
  185.1608   22.7756   50.3040 H   0  0  0  0  0  0  0  0  0  0  0  0
  185.6752   21.9783   48.7787 H   0  0  0  0  0  0  0  0  0  0  0  0
  185.2404   23.7212   48.7787 H   0  0  0  0  0  0  0  0  0  0  0  0
  183.1604   21.7955   50.9642 H   0  0  0  0  0  0  0  0  0  0  0  0
  180.7924   21.1950   50.5156 H   0  0  0  0  0  0  0  0  0  0  0  0
  176.7458   23.5538   49.9972 H   0  0  0  0  0  0  0  0  0  0  0  0
  174.2802   23.2084   49.8081 H   0  0  0  0  0  0  0  0  0  0  0  0
  173.3816   21.3726   48.3765 H   0  0  0  0  0  0  0  0  0  0  0  0
  174.0620   19.9010   46.4420 H   0  0  0  0  0  0  0  0  0  0  0  0
  180.9260   19.5450   46.8720 H   0  0  0  0  0  0  0  0  0  0  0  0
  181.3033   22.2780   46.3680 H   0  0  0  0  0  0  0  0  0  0  0  0
  182.7824   24.6908   45.9770 H   0  0  0  0  0  0  0  0  0  0  0  0
  183.8735   24.9695   47.3724 H   0  0  0  0  0  0  0  0  0  0  0  0
  184.7214   26.0112   45.2491 H   0  0  0  0  0  0  0  0  0  0  0  0
  185.8410   24.7587   45.9212 H   0  0  0  0  0  0  0  0  0  0  0  0
  183.8905   24.4324   43.5936 H   0  0  0  0  0  0  0  0  0  0  0  0
  185.6961   24.4571   43.5266 H   0  0  0  0  0  0  0  0  0  0  0  0
  184.7058   22.1454   43.4080 H   0  0  0  0  0  0  0  0  0  0  0  0
  185.8317   22.4044   44.7997 H   0  0  0  0  0  0  0  0  0  0  0  0
  182.7726   22.4286   44.8984 H   0  0  0  0  0  0  0  0  0  0  0  0
  183.8555   21.1604   45.5578 H   0  0  0  0  0  0  0  0  0  0  0  0
  1  2  1  0
  2  3  2  0
  3  4  1  0
  4  5  2  0
  5  6  1  0
  6  7  1  0
  7  8  1  0
  8  9  2  0
  9 10  1  0
 10 11  2  0
 11 12  1  0
 12 13  1  0
 12 14  2  0
 14 15  1  0
 15 16  2  0
 15 17  1  0
 17 18  1  0
  5 19  1  0
 19 20  2  0
 20 21  1  0
 21 22  1  0
 22 23  1  0
 23 24  1  0
 24 25  1  0
 25 26  1  0
 20  2  1  0
 26 21  1  0
 17  6  2  0
 14  8  1  0
  1 27  1  0
  1 28  1  0
  1 29  1  0
  3 30  1  0
  4 31  1  0
  9 32  1  0
 10 33  1  0
 11 34  1  0
 13 35  1  0
 18 36  1  0
 19 37  1  0
 22 38  1  0
 22 39  1  0
 23 40  1  0
 23 41  1  0
 24 42  1  0
 24 43  1  0
 25 44  1  0
 25 45  1  0
 26 46  1  0
 26 47  1  0
M  END
>  <meeko>  (8) 
{"is_sidechain": [false], "free_energy": -7.381, "intermolecular_energy": -8.506, "internal_energy": -0.595}

$$$$
cand_006_out
     RDKit          3D

 47 50  0  0  0  0  0  0  0  0999 V2000
  175.1540   25.7570   53.9560 C   0  0  0  0  0  0  0  0  0  0  0  0
  175.4940   24.7940   52.8510 C   0  0  0  0  0  0  0  0  0  0  0  0
  176.2980   23.6790   53.1240 C   0  0  0  0  0  0  0  0  0  0  0  0
  176.6230   22.7710   52.1160 C   0  0  0  0  0  0  0  0  0  0  0  0
  176.1480   22.9520   50.8120 C   0  0  0  0  0  0  0  0  0  0  0  0
  176.5240   21.9930   49.7520 C   0  0  0  0  0  0  0  0  0  0  0  0
  177.6690   22.3720   49.0610 O   0  0  0  0  0  0  0  0  0  0  0  0
  178.1320   21.5700   48.0500 C   0  0  0  0  0  0  0  0  0  0  0  0
  179.2760   21.9980   47.3740 C   0  0  0  0  0  0  0  0  0  0  0  0
  179.7990   21.2270   46.3340 C   0  0  0  0  0  0  0  0  0  0  0  0
  179.1810   20.0290   45.9710 C   0  0  0  0  0  0  0  0  0  0  0  0
  178.0400   19.6040   46.6470 C   0  0  0  0  0  0  0  0  0  0  0  0
  177.4860   18.4220   46.2400 O   0  0  0  0  0  0  0  0  0  0  0  0
  177.5150   20.3770   47.6870 C   0  0  0  0  0  0  0  0  0  0  0  0
  176.3180   19.9670   48.4220 C   0  0  0  0  0  0  0  0  0  0  0  0
  175.7220   18.9230   48.1670 O   0  0  0  0  0  0  0  0  0  0  0  0
  175.8390   20.8610   49.5020 C   0  0  0  0  0  0  0  0  0  0  0  0
  174.7150   20.4560   50.1990 O   0  0  0  0  0  0  0  0  0  0  0  0
  175.3530   24.0750   50.5400 C   0  0  0  0  0  0  0  0  0  0  0  0
  175.0120   25.0010   51.5440 C   0  0  0  0  0  0  0  0  0  0  0  0
  174.2010   26.1290   51.2810 N   0  0  0  0  0  0  0  0  0  0  0  0
  172.8220   25.7510   50.9280 C   0  0  0  0  0  0  0  0  0  0  0  0
  171.9550   27.0100   50.8880 C   0  0  0  0  0  0  0  0  0  0  0  0
  172.5380   28.0520   49.9330 C   0  0  0  0  0  0  0  0  0  0  0  0
  174.0000   28.3440   50.2690 C   0  0  0  0  0  0  0  0  0  0  0  0
  174.8220   27.0560   50.3230 C   0  0  0  0  0  0  0  0  0  0  0  0
  175.3247   25.2735   54.9292 H   0  0  0  0  0  0  0  0  0  0  0  0
  175.7913   26.6498   53.8733 H   0  0  0  0  0  0  0  0  0  0  0  0
  174.0975   26.0518   53.8733 H   0  0  0  0  0  0  0  0  0  0  0  0
  176.6769   23.5181   54.1441 H   0  0  0  0  0  0  0  0  0  0  0  0
  177.2590   21.9041   52.3484 H   0  0  0  0  0  0  0  0  0  0  0  0
  179.7646   22.9411   47.6602 H   0  0  0  0  0  0  0  0  0  0  0  0
  180.6995   21.5641   45.7998 H   0  0  0  0  0  0  0  0  0  0  0  0
  179.5946   19.4217   45.1524 H   0  0  0  0  0  0  0  0  0  0  0  0
  176.7660   18.4230   45.6420 H   0  0  0  0  0  0  0  0  0  0  0  0
  174.0570   21.0820   50.4310 H   0  0  0  0  0  0  0  0  0  0  0  0
  174.9864   24.2364   49.5155 H   0  0  0  0  0  0  0  0  0  0  0  0
  172.8138   25.2662   49.9407 H   0  0  0  0  0  0  0  0  0  0  0  0
  172.4254   25.0505   51.6777 H   0  0  0  0  0  0  0  0  0  0  0  0
  170.9440   26.7390   50.5497 H   0  0  0  0  0  0  0  0  0  0  0  0
  171.9224   27.4430   51.8987 H   0  0  0  0  0  0  0  0  0  0  0  0
  172.4745   27.6715   48.9029 H   0  0  0  0  0  0  0  0  0  0  0  0
  171.9616   28.9833   50.0355 H   0  0  0  0  0  0  0  0  0  0  0  0
  174.4203   29.0060   49.4975 H   0  0  0  0  0  0  0  0  0  0  0  0
  174.0412   28.8255   51.2571 H   0  0  0  0  0  0  0  0  0  0  0  0
  174.8471   26.5929   49.3256 H   0  0  0  0  0  0  0  0  0  0  0  0
  175.8496   27.2851   50.6417 H   0  0  0  0  0  0  0  0  0  0  0  0
  1  2  1  0
  2  3  2  0
  3  4  1  0
  4  5  2  0
  5  6  1  0
  6  7  1  0
  7  8  1  0
  8  9  2  0
  9 10  1  0
 10 11  2  0
 11 12  1  0
 12 13  1  0
 12 14  2  0
 14 15  1  0
 15 16  2  0
 15 17  1  0
 17 18  1  0
  5 19  1  0
 19 20  2  0
 20 21  1  0
 21 22  1  0
 22 23  1  0
 23 24  1  0
 24 25  1  0
 25 26  1  0
 20  2  1  0
 26 21  1  0
 17  6  2  0
 14  8  1  0
  1 27  1  0
  1 28  1  0
  1 29  1  0
  3 30  1  0
  4 31  1  0
  9 32  1  0
 10 33  1  0
 11 34  1  0
 13 35  1  0
 18 36  1  0
 19 37  1  0
 22 38  1  0
 22 39  1  0
 23 40  1  0
 23 41  1  0
 24 42  1  0
 24 43  1  0
 25 44  1  0
 25 45  1  0
 26 46  1  0
 26 47  1  0
M  END
>  <meeko>  (9) 
{"is_sidechain": [false], "free_energy": -7.319, "intermolecular_energy": -8.234, "internal_energy": -0.794}

$$$$
