cand_050_out
     RDKit          3D

 38 40  0  0  0  0  0  0  0  0999 V2000
  181.3520   15.1130   41.4600 C   0  0  0  0  0  0  0  0  0  0  0  0
  181.9840   15.1730   42.8440 C   0  0  0  0  0  0  0  0  0  0  0  0
  181.2930   16.1770   43.7400 C   0  0  0  0  0  0  0  0  0  0  0  0
  181.6110   17.5370   43.5810 C   0  0  0  0  0  0  0  0  0  0  0  0
  181.0150   18.5140   44.3820 C   0  0  0  0  0  0  0  0  0  0  0  0
  180.0820   18.1620   45.3630 C   0  0  0  0  0  0  0  0  0  0  0  0
  179.4770   19.2100   46.2130 C   0  0  0  0  0  0  0  0  0  0  0  0
  178.0890   19.2310   46.1400 O   0  0  0  0  0  0  0  0  0  0  0  0
  177.4020   20.1580   46.8810 C   0  0  0  0  0  0  0  0  0  0  0  0
  176.0110   20.1550   46.7670 C   0  0  0  0  0  0  0  0  0  0  0  0
  175.2500   21.0710   47.4970 C   0  0  0  0  0  0  0  0  0  0  0  0
  175.8790   21.9890   48.3400 C   0  0  0  0  0  0  0  0  0  0  0  0
  177.2670   21.9900   48.4520 C   0  0  0  0  0  0  0  0  0  0  0  0
  177.8180   22.9160   49.2960 O   0  0  0  0  0  0  0  0  0  0  0  0
  178.0290   21.0740   47.7210 C   0  0  0  0  0  0  0  0  0  0  0  0
  179.4890   21.0420   47.8100 C   0  0  0  0  0  0  0  0  0  0  0  0
  180.1150   21.8120   48.5350 O   0  0  0  0  0  0  0  0  0  0  0  0
  180.2020   20.0370   46.9890 C   0  0  0  0  0  0  0  0  0  0  0  0
  181.5810   20.0040   47.0880 O   0  0  0  0  0  0  0  0  0  0  0  0
  179.7760   16.8040   45.5340 C   0  0  0  0  0  0  0  0  0  0  0  0
  180.3680   15.8000   44.7370 C   0  0  0  0  0  0  0  0  0  0  0  0
  179.9730   14.3580   44.9690 C   0  0  0  0  0  0  0  0  0  0  0  0
  179.6220   13.6960   43.8290 F   0  0  0  0  0  0  0  0  0  0  0  0
  178.9040   14.2270   45.8040 F   0  0  0  0  0  0  0  0  0  0  0  0
  180.9760   13.6230   45.5250 F   0  0  0  0  0  0  0  0  0  0  0  0
  180.2614   15.0095   41.5591 H   0  0  0  0  0  0  0  0  0  0  0  0
  181.5841   16.0372   40.9105 H   0  0  0  0  0  0  0  0  0  0  0  0
  181.7539   14.2490   40.9105 H   0  0  0  0  0  0  0  0  0  0  0  0
  181.9174   14.1780   43.3082 H   0  0  0  0  0  0  0  0  0  0  0  0
  183.0313   15.4878   42.7257 H   0  0  0  0  0  0  0  0  0  0  0  0
  182.3404   17.8365   42.8140 H   0  0  0  0  0  0  0  0  0  0  0  0
  181.2822   19.5715   44.2398 H   0  0  0  0  0  0  0  0  0  0  0  0
  175.5145   19.4321   46.1030 H   0  0  0  0  0  0  0  0  0  0  0  0
  174.1536   21.0690   47.4075 H   0  0  0  0  0  0  0  0  0  0  0  0
  175.2793   22.7102   48.9147 H   0  0  0  0  0  0  0  0  0  0  0  0
  178.5640   23.4110   49.0240 H   0  0  0  0  0  0  0  0  0  0  0  0
  182.0360   19.1880   47.0160 H   0  0  0  0  0  0  0  0  0  0  0  0
  179.0542   16.5127   46.3113 H   0  0  0  0  0  0  0  0  0  0  0  0
  1  2  1  0
  2  3  1  0
  3  4  2  0
  4  5  1  0
  5  6  2  0
  6  7  1  0
  7  8  1  0
  8  9  1  0
  9 10  2  0
 10 11  1  0
 11 12  2  0
 12 13  1  0
 13 14  1  0
 13 15  2  0
 15 16  1  0
 16 17  2  0
 16 18  1  0
 18 19  1  0
  6 20  1  0
 20 21  2  0
 21 22  1  0
 22 23  1  0
 22 24  1  0
 22 25  1  0
 21  3  1  0
 18  7  2  0
 15  9  1  0
  1 26  1  0
  1 27  1  0
  1 28  1  0
  2 29  1  0
  2 30  1  0
  4 31  1  0
  5 32  1  0
 10 33  1  0
 11 34  1  0
 12 35  1  0
 14 36  1  0
 19 37  1  0
 20 38  1  0
M  END
>  <meeko>  (1) 
{"is_sidechain": [false], "free_energy": -8.702, "intermolecular_energy": -10.737, "internal_energy": -0.485}

$$$$
cand_050_out
     RDKit          3D

 38 40  0  0  0  0  0  0  0  0999 V2000
  181.2260   14.8080   41.0980 C   0  0  0  0  0  0  0  0  0  0  0  0
  181.2100   14.4290   42.5710 C   0  0  0  0  0  0  0  0  0  0  0  0
  180.9290   15.6210   43.4610 C   0  0  0  0  0  0  0  0  0  0  0  0
  181.5260   16.8500   43.1310 C   0  0  0  0  0  0  0  0  0  0  0  0
  181.3150   17.9860   43.9150 C   0  0  0  0  0  0  0  0  0  0  0  0
  180.4990   17.9300   45.0490 C   0  0  0  0  0  0  0  0  0  0  0  0
  180.3030   19.1400   45.8760 C   0  0  0  0  0  0  0  0  0  0  0  0
  181.4740   19.8690   46.0540 O   0  0  0  0  0  0  0  0  0  0  0  0
  181.4310   21.0170   46.8040 C   0  0  0  0  0  0  0  0  0  0  0  0
  182.6310   21.7090   46.9700 C   0  0  0  0  0  0  0  0  0  0  0  0
  182.6570   22.8880   47.7200 C   0  0  0  0  0  0  0  0  0  0  0  0
  181.4840   23.3720   48.3020 C   0  0  0  0  0  0  0  0  0  0  0  0
  180.2880   22.6790   48.1350 C   0  0  0  0  0  0  0  0  0  0  0  0
  179.1770   23.2100   48.7320 O   0  0  0  0  0  0  0  0  0  0  0  0
  180.2620   21.5000   47.3850 C   0  0  0  0  0  0  0  0  0  0  0  0
  179.0270   20.7420   47.1850 C   0  0  0  0  0  0  0  0  0  0  0  0
  177.9530   21.1070   47.6580 O   0  0  0  0  0  0  0  0  0  0  0  0
  179.1090   19.5010   46.3800 C   0  0  0  0  0  0  0  0  0  0  0  0
  177.9350   18.7970   46.1840 O   0  0  0  0  0  0  0  0  0  0  0  0
  179.9150   16.7010   45.3890 C   0  0  0  0  0  0  0  0  0  0  0  0
  180.1170   15.5390   44.6120 C   0  0  0  0  0  0  0  0  0  0  0  0
  179.4380   14.2540   45.0330 C   0  0  0  0  0  0  0  0  0  0  0  0
  180.3070   13.2310   45.2800 F   0  0  0  0  0  0  0  0  0  0  0  0
  178.5780   13.7740   44.0910 F   0  0  0  0  0  0  0  0  0  0  0  0
  178.7060   14.3960   46.1730 F   0  0  0  0  0  0  0  0  0  0  0  0
  181.2722   15.9028   41.0016 H   0  0  0  0  0  0  0  0  0  0  0  0
  182.1060   14.3598   40.6136 H   0  0  0  0  0  0  0  0  0  0  0  0
  180.3113   14.4355   40.6136 H   0  0  0  0  0  0  0  0  0  0  0  0
  180.4288   13.6720   42.7343 H   0  0  0  0  0  0  0  0  0  0  0  0
  182.2045   14.0377   42.8316 H   0  0  0  0  0  0  0  0  0  0  0  0
  182.1694   16.9179   42.2414 H   0  0  0  0  0  0  0  0  0  0  0  0
  181.7961   18.9355   43.6374 H   0  0  0  0  0  0  0  0  0  0  0  0
  183.5551   21.3273   46.5114 H   0  0  0  0  0  0  0  0  0  0  0  0
  183.6023   23.4349   47.8518 H   0  0  0  0  0  0  0  0  0  0  0  0
  181.5046   24.3001   48.8920 H   0  0  0  0  0  0  0  0  0  0  0  0
  179.1260   24.1320   48.8910 H   0  0  0  0  0  0  0  0  0  0  0  0
  177.2820   19.1290   45.6010 H   0  0  0  0  0  0  0  0  0  0  0  0
  179.2816   16.6404   46.2863 H   0  0  0  0  0  0  0  0  0  0  0  0
  1  2  1  0
  2  3  1  0
  3  4  2  0
  4  5  1  0
  5  6  2  0
  6  7  1  0
  7  8  1  0
  8  9  1  0
  9 10  2  0
 10 11  1  0
 11 12  2  0
 12 13  1  0
 13 14  1  0
 13 15  2  0
 15 16  1  0
 16 17  2  0
 16 18  1  0
 18 19  1  0
  6 20  1  0
 20 21  2  0
 21 22  1  0
 22 23  1  0
 22 24  1  0
 22 25  1  0
 21  3  1  0
 18  7  2  0
 15  9  1  0
  1 26  1  0
  1 27  1  0
  1 28  1  0
  2 29  1  0
  2 30  1  0
  4 31  1  0
  5 32  1  0
 10 33  1  0
 11 34  1  0
 12 35  1  0
 14 36  1  0
 19 37  1  0
 20 38  1  0
M  END
>  <meeko>  (2) 
{"is_sidechain": [false], "free_energy": -7.994, "intermolecular_energy": -10.01, "internal_energy": -0.338}

$$$$
cand_050_out
     RDKit          3D

 38 40  0  0  0  0  0  0  0  0999 V2000
  176.8940   23.7800   48.4440 C   0  0  0  0  0  0  0  0  0  0  0  0
  176.7810   22.3820   49.0370 C   0  0  0  0  0  0  0  0  0  0  0  0
  177.4890   21.3480   48.1890 C   0  0  0  0  0  0  0  0  0  0  0  0
  178.8890   21.4220   48.0840 C   0  0  0  0  0  0  0  0  0  0  0  0
  179.6020   20.5040   47.3100 C   0  0  0  0  0  0  0  0  0  0  0  0
  178.9400   19.4830   46.6210 C   0  0  0  0  0  0  0  0  0  0  0  0
  179.7120   18.5330   45.7920 C   0  0  0  0  0  0  0  0  0  0  0  0
  179.2010   17.2410   45.8310 O   0  0  0  0  0  0  0  0  0  0  0  0
  179.8260   16.2590   45.1050 C   0  0  0  0  0  0  0  0  0  0  0  0
  179.2880   14.9740   45.1840 C   0  0  0  0  0  0  0  0  0  0  0  0
  179.8750   13.9280   44.4670 C   0  0  0  0  0  0  0  0  0  0  0  0
  180.9960   14.1680   43.6720 C   0  0  0  0  0  0  0  0  0  0  0  0
  181.5310   15.4520   43.5940 C   0  0  0  0  0  0  0  0  0  0  0  0
  182.6310   15.6160   42.7970 O   0  0  0  0  0  0  0  0  0  0  0  0
  180.9450   16.4980   44.3130 C   0  0  0  0  0  0  0  0  0  0  0  0
  181.4750   17.8610   44.2590 C   0  0  0  0  0  0  0  0  0  0  0  0
  182.4540   18.1530   43.5770 O   0  0  0  0  0  0  0  0  0  0  0  0
  180.7840   18.8950   45.0630 C   0  0  0  0  0  0  0  0  0  0  0  0
  181.2830   20.1830   44.9980 O   0  0  0  0  0  0  0  0  0  0  0  0
  177.5420   19.4180   46.7110 C   0  0  0  0  0  0  0  0  0  0  0  0
  176.8010   20.3360   47.4850 C   0  0  0  0  0  0  0  0  0  0  0  0
  175.2960   20.1900   47.5480 C   0  0  0  0  0  0  0  0  0  0  0  0
  174.8160   20.0020   48.8110 F   0  0  0  0  0  0  0  0  0  0  0  0
  174.8340   19.1300   46.8260 F   0  0  0  0  0  0  0  0  0  0  0  0
  174.6430   21.2850   47.0670 F   0  0  0  0  0  0  0  0  0  0  0  0
  176.9537   24.5192   49.2564 H   0  0  0  0  0  0  0  0  0  0  0  0
  177.8002   23.8430   47.8236 H   0  0  0  0  0  0  0  0  0  0  0  0
  176.0097   23.9877   47.8236 H   0  0  0  0  0  0  0  0  0  0  0  0
  177.2293   22.3850   50.0415 H   0  0  0  0  0  0  0  0  0  0  0  0
  175.7146   22.1154   49.0782 H   0  0  0  0  0  0  0  0  0  0  0  0
  179.4311   22.2152   48.6197 H   0  0  0  0  0  0  0  0  0  0  0  0
  180.6969   20.5850   47.2415 H   0  0  0  0  0  0  0  0  0  0  0  0
  178.4033   14.7847   45.8096 H   0  0  0  0  0  0  0  0  0  0  0  0
  179.4527   12.9142   44.5295 H   0  0  0  0  0  0  0  0  0  0  0  0
  181.4570   13.3442   43.1073 H   0  0  0  0  0  0  0  0  0  0  0  0
  182.9090   14.9220   42.2340 H   0  0  0  0  0  0  0  0  0  0  0  0
  180.7770   20.8980   45.3300 H   0  0  0  0  0  0  0  0  0  0  0  0
  177.0077   18.6285   46.1623 H   0  0  0  0  0  0  0  0  0  0  0  0
  1  2  1  0
  2  3  1  0
  3  4  2  0
  4  5  1  0
  5  6  2  0
  6  7  1  0
  7  8  1  0
  8  9  1  0
  9 10  2  0
 10 11  1  0
 11 12  2  0
 12 13  1  0
 13 14  1  0
 13 15  2  0
 15 16  1  0
 16 17  2  0
 16 18  1  0
 18 19  1  0
  6 20  1  0
 20 21  2  0
 21 22  1  0
 22 23  1  0
 22 24  1  0
 22 25  1  0
 21  3  1  0
 18  7  2  0
 15  9  1  0
  1 26  1  0
  1 27  1  0
  1 28  1  0
  2 29  1  0
  2 30  1  0
  4 31  1  0
  5 32  1  0
 10 33  1  0
 11 34  1  0
 12 35  1  0
 14 36  1  0
 19 37  1  0
 20 38  1  0
M  END
>  <meeko>  (3) 
{"is_sidechain": [false], "free_energy": -7.857, "intermolecular_energy": -9.909, "internal_energy": -0.27}

$$$$
cand_050_out
     RDKit          3D

 38 40  0  0  0  0  0  0  0  0999 V2000
  183.2260   22.2910   46.2310 C   0  0  0  0  0  0  0  0  0  0  0  0
  182.2330   21.1400   46.3060 C   0  0  0  0  0  0  0  0  0  0  0  0
  181.0510   21.4670   47.1920 C   0  0  0  0  0  0  0  0  0  0  0  0
  181.2130   22.4610   48.1730 C   0  0  0  0  0  0  0  0  0  0  0  0
  180.1640   22.8040   49.0300 C   0  0  0  0  0  0  0  0  0  0  0  0
  178.9230   22.1690   48.9300 C   0  0  0  0  0  0  0  0  0  0  0  0
  177.8320   22.5340   49.8590 C   0  0  0  0  0  0  0  0  0  0  0  0
  176.7630   23.1540   49.2220 O   0  0  0  0  0  0  0  0  0  0  0  0
  175.6830   23.5450   49.9700 C   0  0  0  0  0  0  0  0  0  0  0  0
  174.6380   24.1770   49.2930 C   0  0  0  0  0  0  0  0  0  0  0  0
  173.5070   24.5980   49.9960 C   0  0  0  0  0  0  0  0  0  0  0  0
  173.4200   24.3880   51.3730 C   0  0  0  0  0  0  0  0  0  0  0  0
  174.4630   23.7570   52.0460 C   0  0  0  0  0  0  0  0  0  0  0  0
  174.3120   23.5840   53.3950 O   0  0  0  0  0  0  0  0  0  0  0  0
  175.5960   23.3360   51.3440 C   0  0  0  0  0  0  0  0  0  0  0  0
  176.7130   22.6700   52.0130 C   0  0  0  0  0  0  0  0  0  0  0  0
  176.7090   22.4430   53.2200 O   0  0  0  0  0  0  0  0  0  0  0  0
  177.8700   22.2710   51.1780 C   0  0  0  0  0  0  0  0  0  0  0  0
  178.9170   21.6300   51.8150 O   0  0  0  0  0  0  0  0  0  0  0  0
  178.7640   21.1660   47.9630 C   0  0  0  0  0  0  0  0  0  0  0  0
  179.8110   20.8010   47.0880 C   0  0  0  0  0  0  0  0  0  0  0  0
  179.5580   19.7220   46.0580 C   0  0  0  0  0  0  0  0  0  0  0  0
  180.4250   18.6710   46.1410 F   0  0  0  0  0  0  0  0  0  0  0  0
  179.6630   20.1750   44.7770 F   0  0  0  0  0  0  0  0  0  0  0  0
  178.3130   19.1790   46.1620 F   0  0  0  0  0  0  0  0  0  0  0  0
  183.4986   22.6070   47.2488 H   0  0  0  0  0  0  0  0  0  0  0  0
  184.1286   21.9623   45.6950 H   0  0  0  0  0  0  0  0  0  0  0  0
  182.7685   23.1356   45.6950 H   0  0  0  0  0  0  0  0  0  0  0  0
  181.8668   20.9205   45.2922 H   0  0  0  0  0  0  0  0  0  0  0  0
  182.7517   20.2719   46.7388 H   0  0  0  0  0  0  0  0  0  0  0  0
  182.1802   22.9765   48.2673 H   0  0  0  0  0  0  0  0  0  0  0  0
  180.3167   23.5826   49.7919 H   0  0  0  0  0  0  0  0  0  0  0  0
  174.7055   24.3430   48.2077 H   0  0  0  0  0  0  0  0  0  0  0  0
  172.6834   25.0960   49.4634 H   0  0  0  0  0  0  0  0  0  0  0  0
  172.5289   24.7204   51.9258 H   0  0  0  0  0  0  0  0  0  0  0  0
  174.0670   22.7460   53.7350 H   0  0  0  0  0  0  0  0  0  0  0  0
  179.1700   20.7680   51.5480 H   0  0  0  0  0  0  0  0  0  0  0  0
  177.7964   20.6488   47.8836 H   0  0  0  0  0  0  0  0  0  0  0  0
  1  2  1  0
  2  3  1  0
  3  4  2  0
  4  5  1  0
  5  6  2  0
  6  7  1  0
  7  8  1  0
  8  9  1  0
  9 10  2  0
 10 11  1  0
 11 12  2  0
 12 13  1  0
 13 14  1  0
 13 15  2  0
 15 16  1  0
 16 17  2  0
 16 18  1  0
 18 19  1  0
  6 20  1  0
 20 21  2  0
 21 22  1  0
 22 23  1  0
 22 24  1  0
 22 25  1  0
 21  3  1  0
 18  7  2  0
 15  9  1  0
  1 26  1  0
  1 27  1  0
  1 28  1  0
  2 29  1  0
  2 30  1  0
  4 31  1  0
  5 32  1  0
 10 33  1  0
 11 34  1  0
 12 35  1  0
 14 36  1  0
 19 37  1  0
 20 38  1  0
M  END
>  <meeko>  (4) 
{"is_sidechain": [false], "free_energy": -7.736, "intermolecular_energy": -9.477, "internal_energy": -0.553}

$$$$
cand_050_out
     RDKit          3D

 38 40  0  0  0  0  0  0  0  0999 V2000
  175.5250   17.7930   46.3870 C   0  0  0  0  0  0  0  0  0  0  0  0
  176.5560   18.8980   46.2070 C   0  0  0  0  0  0  0  0  0  0  0  0
  176.4850   19.9250   47.3160 C   0  0  0  0  0  0  0  0  0  0  0  0
  175.3080   19.9950   48.0810 C   0  0  0  0  0  0  0  0  0  0  0  0
  175.1750   20.9270   49.1140 C   0  0  0  0  0  0  0  0  0  0  0  0
  176.2140   21.8130   49.4150 C   0  0  0  0  0  0  0  0  0  0  0  0
  176.0460   22.8030   50.4990 C   0  0  0  0  0  0  0  0  0  0  0  0
  175.5400   24.0180   50.0500 O   0  0  0  0  0  0  0  0  0  0  0  0
  175.3360   25.0260   50.9570 C   0  0  0  0  0  0  0  0  0  0  0  0
  174.8430   26.2340   50.4610 C   0  0  0  0  0  0  0  0  0  0  0  0
  174.6100   27.3010   51.3310 C   0  0  0  0  0  0  0  0  0  0  0  0
  174.8700   27.1610   52.6950 C   0  0  0  0  0  0  0  0  0  0  0  0
  175.3620   25.9560   53.1880 C   0  0  0  0  0  0  0  0  0  0  0  0
  175.5950   25.8870   54.5350 O   0  0  0  0  0  0  0  0  0  0  0  0
  175.5960   24.8870   52.3170 C   0  0  0  0  0  0  0  0  0  0  0  0
  176.1130   23.6040   52.7930 C   0  0  0  0  0  0  0  0  0  0  0  0
  176.3600   23.4000   53.9800 O   0  0  0  0  0  0  0  0  0  0  0  0
  176.3340   22.5400   51.7870 C   0  0  0  0  0  0  0  0  0  0  0  0
  176.8100   21.3260   52.2470 O   0  0  0  0  0  0  0  0  0  0  0  0
  177.3830   21.7550   48.6420 C   0  0  0  0  0  0  0  0  0  0  0  0
  177.5380   20.8240   47.5930 C   0  0  0  0  0  0  0  0  0  0  0  0
  178.8360   20.8100   46.8150 C   0  0  0  0  0  0  0  0  0  0  0  0
  178.6640   20.8340   45.4610 F   0  0  0  0  0  0  0  0  0  0  0  0
  179.5930   19.7040   47.0620 F   0  0  0  0  0  0  0  0  0  0  0  0
  179.6300   21.8800   47.1020 F   0  0  0  0  0  0  0  0  0  0  0  0
  175.3603   17.6165   47.4602 H   0  0  0  0  0  0  0  0  0  0  0  0
  174.5781   18.0947   45.9155 H   0  0  0  0  0  0  0  0  0  0  0  0
  175.8915   16.8692   45.9155 H   0  0  0  0  0  0  0  0  0  0  0  0
  177.5603   18.4494   46.2021 H   0  0  0  0  0  0  0  0  0  0  0  0
  176.3441   19.4091   45.2563 H   0  0  0  0  0  0  0  0  0  0  0  0
  174.4788   19.3057   47.8634 H   0  0  0  0  0  0  0  0  0  0  0  0
  174.2427   20.9639   49.6966 H   0  0  0  0  0  0  0  0  0  0  0  0
  174.6383   26.3453   49.3860 H   0  0  0  0  0  0  0  0  0  0  0  0
  174.2210   28.2531   50.9408 H   0  0  0  0  0  0  0  0  0  0  0  0
  174.6863   28.0021   53.3797 H   0  0  0  0  0  0  0  0  0  0  0  0
  176.3720   26.2660   54.8950 H   0  0  0  0  0  0  0  0  0  0  0  0
  176.2740   20.5600   52.1860 H   0  0  0  0  0  0  0  0  0  0  0  0
  178.2026   22.4555   48.8598 H   0  0  0  0  0  0  0  0  0  0  0  0
  1  2  1  0
  2  3  1  0
  3  4  2  0
  4  5  1  0
  5  6  2  0
  6  7  1  0
  7  8  1  0
  8  9  1  0
  9 10  2  0
 10 11  1  0
 11 12  2  0
 12 13  1  0
 13 14  1  0
 13 15  2  0
 15 16  1  0
 16 17  2  0
 16 18  1  0
 18 19  1  0
  6 20  1  0
 20 21  2  0
 21 22  1  0
 22 23  1  0
 22 24  1  0
 22 25  1  0
 21  3  1  0
 18  7  2  0
 15  9  1  0
  1 26  1  0
  1 27  1  0
  1 28  1  0
  2 29  1  0
  2 30  1  0
  4 31  1  0
  5 32  1  0
 10 33  1  0
 11 34  1  0
 12 35  1  0
 14 36  1  0
 19 37  1  0
 20 38  1  0
M  END
>  <meeko>  (5) 
{"is_sidechain": [false], "free_energy": -7.719, "intermolecular_energy": -9.392, "internal_energy": -0.618}

$$$$
cand_050_out
     RDKit          3D

 38 40  0  0  0  0  0  0  0  0999 V2000
  179.3000   21.1530   46.6340 C   0  0  0  0  0  0  0  0  0  0  0  0
  177.8330   21.1330   46.2270 C   0  0  0  0  0  0  0  0  0  0  0  0
  176.9240   21.5470   47.3640 C   0  0  0  0  0  0  0  0  0  0  0  0
  177.0240   22.8620   47.8480 C   0  0  0  0  0  0  0  0  0  0  0  0
  176.2200   23.3040   48.9010 C   0  0  0  0  0  0  0  0  0  0  0  0
  175.2900   22.4490   49.4990 C   0  0  0  0  0  0  0  0  0  0  0  0
  174.4620   22.9320   50.6240 C   0  0  0  0  0  0  0  0  0  0  0  0
  175.2160   23.2990   51.7330 O   0  0  0  0  0  0  0  0  0  0  0  0
  174.5680   23.7650   52.8490 C   0  0  0  0  0  0  0  0  0  0  0  0
  175.3620   24.1080   53.9440 C   0  0  0  0  0  0  0  0  0  0  0  0
  174.7670   24.5920   55.1120 C   0  0  0  0  0  0  0  0  0  0  0  0
  173.3800   24.7330   55.1820 C   0  0  0  0  0  0  0  0  0  0  0  0
  172.5900   24.3910   54.0880 C   0  0  0  0  0  0  0  0  0  0  0  0
  171.2380   24.5540   54.2260 O   0  0  0  0  0  0  0  0  0  0  0  0
  173.1860   23.9050   52.9200 C   0  0  0  0  0  0  0  0  0  0  0  0
  172.3930   23.5340   51.7480 C   0  0  0  0  0  0  0  0  0  0  0  0
  171.1680   23.6360   51.7300 O   0  0  0  0  0  0  0  0  0  0  0  0
  173.1200   23.0230   50.5640 C   0  0  0  0  0  0  0  0  0  0  0  0
  172.3650   22.6870   49.4550 O   0  0  0  0  0  0  0  0  0  0  0  0
  175.1990   21.1310   49.0270 C   0  0  0  0  0  0  0  0  0  0  0  0
  176.0030   20.6620   47.9660 C   0  0  0  0  0  0  0  0  0  0  0  0
  175.8350   19.2310   47.5000 C   0  0  0  0  0  0  0  0  0  0  0  0
  174.7700   19.0490   46.6660 F   0  0  0  0  0  0  0  0  0  0  0  0
  175.6400   18.3570   48.5280 F   0  0  0  0  0  0  0  0  0  0  0  0
  176.9190   18.7720   46.8160 F   0  0  0  0  0  0  0  0  0  0  0  0
  179.3761   21.1540   47.7314 H   0  0  0  0  0  0  0  0  0  0  0  0
  179.8041   20.2616   46.2323 H   0  0  0  0  0  0  0  0  0  0  0  0
  179.7797   22.0578   46.2323 H   0  0  0  0  0  0  0  0  0  0  0  0
  177.6882   21.8268   45.3858 H   0  0  0  0  0  0  0  0  0  0  0  0
  177.5733   20.1028   45.9419 H   0  0  0  0  0  0  0  0  0  0  0  0
  177.7465   23.5540   47.3907 H   0  0  0  0  0  0  0  0  0  0  0  0
  176.3199   24.3375   49.2641 H   0  0  0  0  0  0  0  0  0  0  0  0
  176.4550   23.9975   53.8878 H   0  0  0  0  0  0  0  0  0  0  0  0
  175.3916   24.8619   55.9763 H   0  0  0  0  0  0  0  0  0  0  0  0
  172.9114   25.1142   56.1013 H   0  0  0  0  0  0  0  0  0  0  0  0
  170.7170   24.7870   53.4850 H   0  0  0  0  0  0  0  0  0  0  0  0
  171.7620   23.3060   49.0950 H   0  0  0  0  0  0  0  0  0  0  0  0
  174.4805   20.4435   49.4972 H   0  0  0  0  0  0  0  0  0  0  0  0
  1  2  1  0
  2  3  1  0
  3  4  2  0
  4  5  1  0
  5  6  2  0
  6  7  1  0
  7  8  1  0
  8  9  1  0
  9 10  2  0
 10 11  1  0
 11 12  2  0
 12 13  1  0
 13 14  1  0
 13 15  2  0
 15 16  1  0
 16 17  2  0
 16 18  1  0
 18 19  1  0
  6 20  1  0
 20 21  2  0
 21 22  1  0
 22 23  1  0
 22 24  1  0
 22 25  1  0
 21  3  1  0
 18  7  2  0
 15  9  1  0
  1 26  1  0
  1 27  1  0
  1 28  1  0
  2 29  1  0
  2 30  1  0
  4 31  1  0
  5 32  1  0
 10 33  1  0
 11 34  1  0
 12 35  1  0
 14 36  1  0
 19 37  1  0
 20 38  1  0
M  END
>  <meeko>  (6) 
{"is_sidechain": [false], "free_energy": -7.591, "intermolecular_energy": -9.657, "internal_energy": -0.194}

$$$$
cand_050_out
     RDKit          3D

 38 40  0  0  0  0  0  0  0  0999 V2000
  180.4130   18.5060   45.4570 C   0  0  0  0  0  0  0  0  0  0  0  0
  180.2400   20.0110   45.3070 C   0  0  0  0  0  0  0  0  0  0  0  0
  179.4840   20.6130   46.4710 C   0  0  0  0  0  0  0  0  0  0  0  0
  178.0820   20.5190   46.4710 C   0  0  0  0  0  0  0  0  0  0  0  0
  177.3240   21.0620   47.5110 C   0  0  0  0  0  0  0  0  0  0  0  0
  177.9430   21.7110   48.5830 C   0  0  0  0  0  0  0  0  0  0  0  0
  177.1210   22.2950   49.6650 C   0  0  0  0  0  0  0  0  0  0  0  0
  176.0670   23.0660   49.1880 O   0  0  0  0  0  0  0  0  0  0  0  0
  175.2260   23.6670   50.0890 C   0  0  0  0  0  0  0  0  0  0  0  0
  174.1900   24.4430   49.5680 C   0  0  0  0  0  0  0  0  0  0  0  0
  173.2950   25.0810   50.4300 C   0  0  0  0  0  0  0  0  0  0  0  0
  173.4360   24.9410   51.8120 C   0  0  0  0  0  0  0  0  0  0  0  0
  174.4700   24.1660   52.3300 C   0  0  0  0  0  0  0  0  0  0  0  0
  174.5500   24.0720   53.6930 O   0  0  0  0  0  0  0  0  0  0  0  0
  175.3660   23.5280   51.4670 C   0  0  0  0  0  0  0  0  0  0  0  0
  176.4660   22.7050   51.9690 C   0  0  0  0  0  0  0  0  0  0  0  0
  176.6520   22.5280   53.1710 O   0  0  0  0  0  0  0  0  0  0  0  0
  177.3630   22.0790   50.9710 C   0  0  0  0  0  0  0  0  0  0  0  0
  178.3930   21.2920   51.4530 O   0  0  0  0  0  0  0  0  0  0  0  0
  179.3410   21.8210   48.5770 C   0  0  0  0  0  0  0  0  0  0  0  0
  180.1270   21.2810   47.5360 C   0  0  0  0  0  0  0  0  0  0  0  0
  181.6320   21.4230   47.6080 C   0  0  0  0  0  0  0  0  0  0  0  0
  182.1870   21.9600   46.4830 F   0  0  0  0  0  0  0  0  0  0  0  0
  182.2700   20.2330   47.7910 F   0  0  0  0  0  0  0  0  0  0  0  0
  182.0340   22.2260   48.6330 F   0  0  0  0  0  0  0  0  0  0  0  0
  180.4430   18.2450   46.5252 H   0  0  0  0  0  0  0  0  0  0  0  0
  179.5682   17.9902   44.9771 H   0  0  0  0  0  0  0  0  0  0  0  0
  181.3528   18.1953   44.9771 H   0  0  0  0  0  0  0  0  0  0  0  0
  181.2339   20.4787   45.2489 H   0  0  0  0  0  0  0  0  0  0  0  0
  179.6589   20.1968   44.3917 H   0  0  0  0  0  0  0  0  0  0  0  0
  177.5735   20.0099   45.6390 H   0  0  0  0  0  0  0  0  0  0  0  0
  176.2275   20.9779   47.4861 H   0  0  0  0  0  0  0  0  0  0  0  0
  174.0782   24.5523   48.4792 H   0  0  0  0  0  0  0  0  0  0  0  0
  172.4788   25.6939   50.0199 H   0  0  0  0  0  0  0  0  0  0  0  0
  172.7307   25.4426   52.4909 H   0  0  0  0  0  0  0  0  0  0  0  0
  174.8110   23.2670   54.0920 H   0  0  0  0  0  0  0  0  0  0  0  0
  179.2810   21.5040   51.2440 H   0  0  0  0  0  0  0  0  0  0  0  0
  179.8394   22.3430   49.4071 H   0  0  0  0  0  0  0  0  0  0  0  0
  1  2  1  0
  2  3  1  0
  3  4  2  0
  4  5  1  0
  5  6  2  0
  6  7  1  0
  7  8  1  0
  8  9  1  0
  9 10  2  0
 10 11  1  0
 11 12  2  0
 12 13  1  0
 13 14  1  0
 13 15  2  0
 15 16  1  0
 16 17  2  0
 16 18  1  0
 18 19  1  0
  6 20  1  0
 20 21  2  0
 21 22  1  0
 22 23  1  0
 22 24  1  0
 22 25  1  0
 21  3  1  0
 18  7  2  0
 15  9  1  0
  1 26  1  0
  1 27  1  0
  1 28  1  0
  2 29  1  0
  2 30  1  0
  4 31  1  0
  5 32  1  0
 10 33  1  0
 11 34  1  0
 12 35  1  0
 14 36  1  0
 19 37  1  0
 20 38  1  0
M  END
>  <meeko>  (7) 
{"is_sidechain": [false], "free_energy": -7.482, "intermolecular_energy": -9.24, "internal_energy": -0.476}

$$$$
cand_050_out
     RDKit          3D

 38 40  0  0  0  0  0  0  0  0999 V2000
  176.5130   19.0190   46.3510 C   0  0  0  0  0  0  0  0  0  0  0  0
  176.3000   20.4940   46.6600 C   0  0  0  0  0  0  0  0  0  0  0  0
  177.4280   21.0680   47.4890 C   0  0  0  0  0  0  0  0  0  0  0  0
  178.5970   21.4790   46.8260 C   0  0  0  0  0  0  0  0  0  0  0  0
  179.6790   22.0090   47.5340 C   0  0  0  0  0  0  0  0  0  0  0  0
  179.6240   22.1480   48.9240 C   0  0  0  0  0  0  0  0  0  0  0  0
  180.7860   22.6940   49.6560 C   0  0  0  0  0  0  0  0  0  0  0  0
  180.7320   24.0750   49.8060 O   0  0  0  0  0  0  0  0  0  0  0  0
  181.7520   24.7090   50.4670 C   0  0  0  0  0  0  0  0  0  0  0  0
  181.6660   26.0970   50.5810 C   0  0  0  0  0  0  0  0  0  0  0  0
  182.6700   26.8060   51.2460 C   0  0  0  0  0  0  0  0  0  0  0  0
  183.7580   26.1260   51.7960 C   0  0  0  0  0  0  0  0  0  0  0  0
  183.8420   24.7410   51.6810 C   0  0  0  0  0  0  0  0  0  0  0  0
  184.9350   24.1390   52.2430 O   0  0  0  0  0  0  0  0  0  0  0  0
  182.8380   24.0320   51.0150 C   0  0  0  0  0  0  0  0  0  0  0  0
  182.8880   22.5770   50.8720 C   0  0  0  0  0  0  0  0  0  0  0  0
  183.8080   21.9070   51.3350 O   0  0  0  0  0  0  0  0  0  0  0  0
  181.7770   21.9240   50.1420 C   0  0  0  0  0  0  0  0  0  0  0  0
  181.8240   20.5470   50.0220 O   0  0  0  0  0  0  0  0  0  0  0  0
  178.4640   21.7230   49.5900 C   0  0  0  0  0  0  0  0  0  0  0  0
  177.3610   21.1830   48.8950 C   0  0  0  0  0  0  0  0  0  0  0  0
  176.1370   20.7640   49.6810 C   0  0  0  0  0  0  0  0  0  0  0  0
  175.8450   19.4350   49.5730 F   0  0  0  0  0  0  0  0  0  0  0  0
  175.0050   21.4140   49.2890 F   0  0  0  0  0  0  0  0  0  0  0  0
  176.2650   21.0030   51.0160 F   0  0  0  0  0  0  0  0  0  0  0  0
  176.5944   18.4553   47.2921 H   0  0  0  0  0  0  0  0  0  0  0  0
  175.6603   18.6395   45.7688 H   0  0  0  0  0  0  0  0  0  0  0  0
  177.4382   18.8962   45.7688 H   0  0  0  0  0  0  0  0  0  0  0  0
  176.2369   21.0498   45.7128 H   0  0  0  0  0  0  0  0  0  0  0  0
  175.3700   20.5889   47.2397 H   0  0  0  0  0  0  0  0  0  0  0  0
  178.6613   21.3819   45.7322 H   0  0  0  0  0  0  0  0  0  0  0  0
  180.5840   22.3203   46.9916 H   0  0  0  0  0  0  0  0  0  0  0  0
  180.8085   26.6328   50.1477 H   0  0  0  0  0  0  0  0  0  0  0  0
  182.6029   27.9003   51.3361 H   0  0  0  0  0  0  0  0  0  0  0  0
  184.5482   26.6839   52.3198 H   0  0  0  0  0  0  0  0  0  0  0  0
  185.0890   24.2140   53.1630 H   0  0  0  0  0  0  0  0  0  0  0  0
  182.3990   20.0490   50.5690 H   0  0  0  0  0  0  0  0  0  0  0  0
  178.4132   21.8134   50.6851 H   0  0  0  0  0  0  0  0  0  0  0  0
  1  2  1  0
  2  3  1  0
  3  4  2  0
  4  5  1  0
  5  6  2  0
  6  7  1  0
  7  8  1  0
  8  9  1  0
  9 10  2  0
 10 11  1  0
 11 12  2  0
 12 13  1  0
 13 14  1  0
 13 15  2  0
 15 16  1  0
 16 17  2  0
 16 18  1  0
 18 19  1  0
  6 20  1  0
 20 21  2  0
 21 22  1  0
 22 23  1  0
 22 24  1  0
 22 25  1  0
 21  3  1  0
 18  7  2  0
 15  9  1  0
  1 26  1  0
  1 27  1  0
  1 28  1  0
  2 29  1  0
  2 30  1  0
  4 31  1  0
  5 32  1  0
 10 33  1  0
 11 34  1  0
 12 35  1  0
 14 36  1  0
 19 37  1  0
 20 38  1  0
M  END
>  <meeko>  (8) 
{"is_sidechain": [false], "free_energy": -7.418, "intermolecular_energy": -8.897, "internal_energy": -0.741}

$$$$
cand_050_out
     RDKit          3D

 38 40  0  0  0  0  0  0  0  0999 V2000
  181.4940   21.6210   47.3360 C   0  0  0  0  0  0  0  0  0  0  0  0
  180.4830   20.6740   47.9660 C   0  0  0  0  0  0  0  0  0  0  0  0
  179.1620   21.3570   48.2420 C   0  0  0  0  0  0  0  0  0  0  0  0
  179.0540   22.1490   49.3980 C   0  0  0  0  0  0  0  0  0  0  0  0
  177.8590   22.8000   49.7160 C   0  0  0  0  0  0  0  0  0  0  0  0
  176.7390   22.6820   48.8880 C   0  0  0  0  0  0  0  0  0  0  0  0
  175.4790   23.3640   49.2520 C   0  0  0  0  0  0  0  0  0  0  0  0
  175.6670   24.6940   49.6110 O   0  0  0  0  0  0  0  0  0  0  0  0
  174.5760   25.4430   49.9720 C   0  0  0  0  0  0  0  0  0  0  0  0
  174.8120   26.7680   50.3390 C   0  0  0  0  0  0  0  0  0  0  0  0
  173.7440   27.5870   50.7160 C   0  0  0  0  0  0  0  0  0  0  0  0
  172.4430   27.0810   50.7250 C   0  0  0  0  0  0  0  0  0  0  0  0
  172.2110   25.7580   50.3580 C   0  0  0  0  0  0  0  0  0  0  0  0
  170.9120   25.3270   50.3890 O   0  0  0  0  0  0  0  0  0  0  0  0
  173.2790   24.9380   49.9820 C   0  0  0  0  0  0  0  0  0  0  0  0
  173.0780   23.5430   49.5900 C   0  0  0  0  0  0  0  0  0  0  0  0
  171.9640   23.0260   49.5650 O   0  0  0  0  0  0  0  0  0  0  0  0
  174.2780   22.7580   49.2160 C   0  0  0  0  0  0  0  0  0  0  0  0
  174.0790   21.4440   48.8340 O   0  0  0  0  0  0  0  0  0  0  0  0
  176.8400   21.8790   47.7420 C   0  0  0  0  0  0  0  0  0  0  0  0
  178.0360   21.2110   47.4030 C   0  0  0  0  0  0  0  0  0  0  0  0
  178.0730   20.3770   46.1400 C   0  0  0  0  0  0  0  0  0  0  0  0
  179.0240   20.7770   45.2470 F   0  0  0  0  0  0  0  0  0  0  0  0
  176.8980   20.4040   45.4510 F   0  0  0  0  0  0  0  0  0  0  0  0
  178.3330   19.0630   46.3880 F   0  0  0  0  0  0  0  0  0  0  0  0
  182.0509   22.1427   48.1283 H   0  0  0  0  0  0  0  0  0  0  0  0
  182.1949   21.0469   46.7122 H   0  0  0  0  0  0  0  0  0  0  0  0
  180.9669   22.3579   46.7122 H   0  0  0  0  0  0  0  0  0  0  0  0
  180.3106   19.8313   47.2803 H   0  0  0  0  0  0  0  0  0  0  0  0
  180.8938   20.3283   48.9261 H   0  0  0  0  0  0  0  0  0  0  0  0
  179.9236   22.2582   50.0628 H   0  0  0  0  0  0  0  0  0  0  0  0
  177.7991   23.4121   50.6280 H   0  0  0  0  0  0  0  0  0  0  0  0
  175.8368   27.1675   50.3317 H   0  0  0  0  0  0  0  0  0  0  0  0
  173.9289   28.6318   51.0060 H   0  0  0  0  0  0  0  0  0  0  0  0
  171.6028   27.7261   51.0214 H   0  0  0  0  0  0  0  0  0  0  0  0
  170.2140   25.9480   50.4360 H   0  0  0  0  0  0  0  0  0  0  0  0
  174.1560   21.2020   47.9320 H   0  0  0  0  0  0  0  0  0  0  0  0
  175.9619   21.7669   47.0891 H   0  0  0  0  0  0  0  0  0  0  0  0
  1  2  1  0
  2  3  1  0
  3  4  2  0
  4  5  1  0
  5  6  2  0
  6  7  1  0
  7  8  1  0
  8  9  1  0
  9 10  2  0
 10 11  1  0
 11 12  2  0
 12 13  1  0
 13 14  1  0
 13 15  2  0
 15 16  1  0
 16 17  2  0
 16 18  1  0
 18 19  1  0
  6 20  1  0
 20 21  2  0
 21 22  1  0
 22 23  1  0
 22 24  1  0
 22 25  1  0
 21  3  1  0
 18  7  2  0
 15  9  1  0
  1 26  1  0
  1 27  1  0
  1 28  1  0
  2 29  1  0
  2 30  1  0
  4 31  1  0
  5 32  1  0
 10 33  1  0
 11 34  1  0
 12 35  1  0
 14 36  1  0
 19 37  1  0
 20 38  1  0
M  END
>  <meeko>  (9) 
{"is_sidechain": [false], "free_energy": -7.367, "intermolecular_energy": -9.165, "internal_energy": -0.409}

$$$$
