cand_015_out
     RDKit          3D

 36 38  0  0  0  0  0  0  0  0999 V2000
  181.2110   14.5030   41.6620 C   0  0  0  0  0  0  0  0  0  0  0  0
  181.8470   15.1930   42.6140 C   0  0  0  0  0  0  0  0  0  0  0  0
  183.1700   14.9710   42.7790 F   0  0  0  0  0  0  0  0  0  0  0  0
  181.2000   16.1550   43.5230 C   0  0  0  0  0  0  0  0  0  0  0  0
  181.4620   17.5290   43.3800 C   0  0  0  0  0  0  0  0  0  0  0  0
  180.8870   18.4700   44.2420 C   0  0  0  0  0  0  0  0  0  0  0  0
  180.0330   18.0670   45.2710 C   0  0  0  0  0  0  0  0  0  0  0  0
  179.4370   19.0370   46.2140 C   0  0  0  0  0  0  0  0  0  0  0  0
  178.0470   19.0120   46.2090 O   0  0  0  0  0  0  0  0  0  0  0  0
  177.3660   19.8650   47.0390 C   0  0  0  0  0  0  0  0  0  0  0  0
  175.9720   19.7950   47.0120 C   0  0  0  0  0  0  0  0  0  0  0  0
  175.2170   20.6380   47.8320 C   0  0  0  0  0  0  0  0  0  0  0  0
  175.8540   21.5480   48.6770 C   0  0  0  0  0  0  0  0  0  0  0  0
  177.2450   21.6150   48.7010 C   0  0  0  0  0  0  0  0  0  0  0  0
  177.8050   22.5290   49.5510 O   0  0  0  0  0  0  0  0  0  0  0  0
  178.0000   20.7710   47.8820 C   0  0  0  0  0  0  0  0  0  0  0  0
  179.4640   20.8090   47.8780 C   0  0  0  0  0  0  0  0  0  0  0  0
  180.0970   21.5880   48.5870 O   0  0  0  0  0  0  0  0  0  0  0  0
  180.1690   19.8690   46.9770 C   0  0  0  0  0  0  0  0  0  0  0  0
  181.5520   19.9220   46.9710 O   0  0  0  0  0  0  0  0  0  0  0  0
  179.7830   16.6950   45.4280 C   0  0  0  0  0  0  0  0  0  0  0  0
  180.3460   15.7340   44.5640 C   0  0  0  0  0  0  0  0  0  0  0  0
  180.0290   14.2810   44.7990 C   0  0  0  0  0  0  0  0  0  0  0  0
  180.1342   14.6565   41.4979 H   0  0  0  0  0  0  0  0  0  0  0  0
  181.7644   13.7817   41.0427 H   0  0  0  0  0  0  0  0  0  0  0  0
  182.1309   17.8705   42.5763 H   0  0  0  0  0  0  0  0  0  0  0  0
  181.1102   19.5387   44.1075 H   0  0  0  0  0  0  0  0  0  0  0  0
  175.4689   19.0778   46.3467 H   0  0  0  0  0  0  0  0  0  0  0  0
  174.1185   20.5842   47.8114 H   0  0  0  0  0  0  0  0  0  0  0  0
  175.2589   22.2107   49.3225 H   0  0  0  0  0  0  0  0  0  0  0  0
  178.4630   23.1180   49.2380 H   0  0  0  0  0  0  0  0  0  0  0  0
  182.0050   20.2440   46.2160 H   0  0  0  0  0  0  0  0  0  0  0  0
  179.1300   16.3605   46.2475 H   0  0  0  0  0  0  0  0  0  0  0  0
  179.9863   14.0853   45.8806 H   0  0  0  0  0  0  0  0  0  0  0  0
  179.0571   14.0395   44.3440 H   0  0  0  0  0  0  0  0  0  0  0  0
  180.8121   13.6566   44.3440 H   0  0  0  0  0  0  0  0  0  0  0  0
  1  2  2  0
  2  3  1  0
  2  4  1  0
  4  5  2  0
  5  6  1  0
  6  7  2  0
  7  8  1  0
  8  9  1  0
  9 10  1  0
 10 11  2  0
 11 12  1  0
 12 13  2  0
 13 14  1  0
 14 15  1  0
 14 16  2  0
 16 17  1  0
 17 18  2  0
 17 19  1  0
 19 20  1  0
  7 21  1  0
 21 22  2  0
 22 23  1  0
 22  4  1  0
 19  8  2  0
 16 10  1  0
  1 24  1  0
  1 25  1  0
  5 26  1  0
  6 27  1  0
 11 28  1  0
 12 29  1  0
 13 30  1  0
 15 31  1  0
 20 32  1  0
 21 33  1  0
 23 34  1  0
 23 35  1  0
 23 36  1  0
M  END
>  <meeko>  (1) 
{"is_sidechain": [false], "free_energy": -7.983, "intermolecular_energy": -9.383, "internal_energy": -0.217}

$$$$
cand_015_out
     RDKit          3D

 36 38  0  0  0  0  0  0  0  0999 V2000
  179.0680   20.6600   46.6670 C   0  0  0  0  0  0  0  0  0  0  0  0
  177.7410   20.7740   46.5490 C   0  0  0  0  0  0  0  0  0  0  0  0
  177.1770   20.4050   45.3770 F   0  0  0  0  0  0  0  0  0  0  0  0
  176.8520   21.3070   47.5950 C   0  0  0  0  0  0  0  0  0  0  0  0
  176.8790   22.6800   47.8960 C   0  0  0  0  0  0  0  0  0  0  0  0
  176.0680   23.2190   48.9020 C   0  0  0  0  0  0  0  0  0  0  0  0
  175.2060   22.4010   49.6370 C   0  0  0  0  0  0  0  0  0  0  0  0
  174.3620   22.9380   50.7250 C   0  0  0  0  0  0  0  0  0  0  0  0
  175.0950   23.3070   51.8460 O   0  0  0  0  0  0  0  0  0  0  0  0
  174.4340   23.8220   52.9310 C   0  0  0  0  0  0  0  0  0  0  0  0
  175.2110   24.1930   54.0300 C   0  0  0  0  0  0  0  0  0  0  0  0
  174.6000   24.7220   55.1690 C   0  0  0  0  0  0  0  0  0  0  0  0
  173.2130   24.8810   55.2100 C   0  0  0  0  0  0  0  0  0  0  0  0
  172.4400   24.5100   54.1120 C   0  0  0  0  0  0  0  0  0  0  0  0
  171.0890   24.6920   54.2190 O   0  0  0  0  0  0  0  0  0  0  0  0
  173.0530   23.9810   52.9720 C   0  0  0  0  0  0  0  0  0  0  0  0
  172.2770   23.5800   51.7980 C   0  0  0  0  0  0  0  0  0  0  0  0
  171.0530   23.6810   51.7590 O   0  0  0  0  0  0  0  0  0  0  0  0
  173.0230   23.0370   50.6390 C   0  0  0  0  0  0  0  0  0  0  0  0
  172.2790   22.6480   49.5390 O   0  0  0  0  0  0  0  0  0  0  0  0
  175.1890   21.0270   49.3510 C   0  0  0  0  0  0  0  0  0  0  0  0
  175.9910   20.4700   48.3360 C   0  0  0  0  0  0  0  0  0  0  0  0
  175.9150   18.9860   48.0910 C   0  0  0  0  0  0  0  0  0  0  0  0
  179.5637   20.9501   47.6052 H   0  0  0  0  0  0  0  0  0  0  0  0
  179.6640   20.2761   45.8259 H   0  0  0  0  0  0  0  0  0  0  0  0
  177.5499   23.3433   47.3305 H   0  0  0  0  0  0  0  0  0  0  0  0
  176.1098   24.2972   49.1159 H   0  0  0  0  0  0  0  0  0  0  0  0
  176.3035   24.0688   53.9988 H   0  0  0  0  0  0  0  0  0  0  0  0
  175.2121   25.0139   56.0351 H   0  0  0  0  0  0  0  0  0  0  0  0
  172.7321   25.2982   56.1071 H   0  0  0  0  0  0  0  0  0  0  0  0
  170.7280   25.5560   54.1800 H   0  0  0  0  0  0  0  0  0  0  0  0
  171.9450   23.2940   48.9480 H   0  0  0  0  0  0  0  0  0  0  0  0
  174.5312   20.3671   49.9356 H   0  0  0  0  0  0  0  0  0  0  0  0
  175.8879   18.4562   49.0546 H   0  0  0  0  0  0  0  0  0  0  0  0
  175.0038   18.7549   47.5197 H   0  0  0  0  0  0  0  0  0  0  0  0
  176.7978   18.6630   47.5197 H   0  0  0  0  0  0  0  0  0  0  0  0
  1  2  2  0
  2  3  1  0
  2  4  1  0
  4  5  2  0
  5  6  1  0
  6  7  2  0
  7  8  1  0
  8  9  1  0
  9 10  1  0
 10 11  2  0
 11 12  1  0
 12 13  2  0
 13 14  1  0
 14 15  1  0
 14 16  2  0
 16 17  1  0
 17 18  2  0
 17 19  1  0
 19 20  1  0
  7 21  1  0
 21 22  2  0
 22 23  1  0
 22  4  1  0
 19  8  2  0
 16 10  1  0
  1 24  1  0
  1 25  1  0
  5 26  1  0
  6 27  1  0
 11 28  1  0
 12 29  1  0
 13 30  1  0
 15 31  1  0
 20 32  1  0
 21 33  1  0
 23 34  1  0
 23 35  1  0
 23 36  1  0
M  END
>  <meeko>  (2) 
{"is_sidechain": [false], "free_energy": -7.691, "intermolecular_energy": -8.738, "internal_energy": -0.52}

$$$$
cand_015_out
     RDKit          3D

 36 38  0  0  0  0  0  0  0  0999 V2000
  171.6450   24.2380   48.8590 C   0  0  0  0  0  0  0  0  0  0  0  0
  172.5460   23.8340   49.7600 C   0  0  0  0  0  0  0  0  0  0  0  0
  172.1850   23.8450   51.0630 F   0  0  0  0  0  0  0  0  0  0  0  0
  173.9190   23.4100   49.4370 C   0  0  0  0  0  0  0  0  0  0  0  0
  174.1560   22.0940   49.0030 C   0  0  0  0  0  0  0  0  0  0  0  0
  175.4500   21.6470   48.7130 C   0  0  0  0  0  0  0  0  0  0  0  0
  176.5460   22.5020   48.8490 C   0  0  0  0  0  0  0  0  0  0  0  0
  177.9270   22.0460   48.5790 C   0  0  0  0  0  0  0  0  0  0  0  0
  178.0900   21.5480   47.2910 O   0  0  0  0  0  0  0  0  0  0  0  0
  179.3250   21.0910   46.9090 C   0  0  0  0  0  0  0  0  0  0  0  0
  179.4470   20.6130   45.6030 C   0  0  0  0  0  0  0  0  0  0  0  0
  180.6770   20.1300   45.1500 C   0  0  0  0  0  0  0  0  0  0  0  0
  181.7830   20.1240   46.0020 C   0  0  0  0  0  0  0  0  0  0  0  0
  181.6580   20.6010   47.3040 C   0  0  0  0  0  0  0  0  0  0  0  0
  182.7810   20.5670   48.0850 O   0  0  0  0  0  0  0  0  0  0  0  0
  180.4270   21.0850   47.7560 C   0  0  0  0  0  0  0  0  0  0  0  0
  180.2540   21.5960   49.1170 C   0  0  0  0  0  0  0  0  0  0  0  0
  181.1770   21.6170   49.9280 O   0  0  0  0  0  0  0  0  0  0  0  0
  178.9100   22.0920   49.4960 C   0  0  0  0  0  0  0  0  0  0  0  0
  178.7530   22.5600   50.7880 O   0  0  0  0  0  0  0  0  0  0  0  0
  176.3170   23.8100   49.2990 C   0  0  0  0  0  0  0  0  0  0  0  0
  175.0190   24.2800   49.5860 C   0  0  0  0  0  0  0  0  0  0  0  0
  174.8570   25.6990   50.0640 C   0  0  0  0  0  0  0  0  0  0  0  0
  171.9012   24.2434   47.7893 H   0  0  0  0  0  0  0  0  0  0  0  0
  170.6474   24.5651   49.1873 H   0  0  0  0  0  0  0  0  0  0  0  0
  173.3082   21.4025   48.8892 H   0  0  0  0  0  0  0  0  0  0  0  0
  175.6055   20.6120   48.3746 H   0  0  0  0  0  0  0  0  0  0  0  0
  178.5757   20.6167   44.9316 H   0  0  0  0  0  0  0  0  0  0  0  0
  180.7743   19.7540   44.1209 H   0  0  0  0  0  0  0  0  0  0  0  0
  182.7513   19.7431   45.6453 H   0  0  0  0  0  0  0  0  0  0  0  0
  182.7610   20.9270   48.9500 H   0  0  0  0  0  0  0  0  0  0  0  0
  179.3650   22.3110   51.4540 H   0  0  0  0  0  0  0  0  0  0  0  0
  177.1731   24.4878   49.4317 H   0  0  0  0  0  0  0  0  0  0  0  0
  174.8549   25.7174   51.1638 H   0  0  0  0  0  0  0  0  0  0  0  0
  175.6912   26.3099   49.6886 H   0  0  0  0  0  0  0  0  0  0  0  0
  173.9065   26.1061   49.6886 H   0  0  0  0  0  0  0  0  0  0  0  0
  1  2  2  0
  2  3  1  0
  2  4  1  0
  4  5  2  0
  5  6  1  0
  6  7  2  0
  7  8  1  0
  8  9  1  0
  9 10  1  0
 10 11  2  0
 11 12  1  0
 12 13  2  0
 13 14  1  0
 14 15  1  0
 14 16  2  0
 16 17  1  0
 17 18  2  0
 17 19  1  0
 19 20  1  0
  7 21  1  0
 21 22  2  0
 22 23  1  0
 22  4  1  0
 19  8  2  0
 16 10  1  0
  1 24  1  0
  1 25  1  0
  5 26  1  0
  6 27  1  0
 11 28  1  0
 12 29  1  0
 13 30  1  0
 15 31  1  0
 20 32  1  0
 21 33  1  0
 23 34  1  0
 23 35  1  0
 23 36  1  0
M  END
>  <meeko>  (3) 
{"is_sidechain": [false], "free_energy": -7.631, "intermolecular_energy": -8.813, "internal_energy": -0.373}

$$$$
cand_015_out
     RDKit          3D

 36 38  0  0  0  0  0  0  0  0999 V2000
  181.2350   19.4480   45.9070 C   0  0  0  0  0  0  0  0  0  0  0  0
  180.1470   20.1860   45.6640 C   0  0  0  0  0  0  0  0  0  0  0  0
  179.8370   20.4480   44.3740 F   0  0  0  0  0  0  0  0  0  0  0  0
  179.2790   20.7660   46.7040 C   0  0  0  0  0  0  0  0  0  0  0  0
  179.7230   21.8810   47.4360 C   0  0  0  0  0  0  0  0  0  0  0  0
  178.9390   22.4420   48.4500 C   0  0  0  0  0  0  0  0  0  0  0  0
  177.6870   21.9060   48.7620 C   0  0  0  0  0  0  0  0  0  0  0  0
  176.8510   22.4600   49.8480 C   0  0  0  0  0  0  0  0  0  0  0  0
  175.7650   23.1890   49.3770 O   0  0  0  0  0  0  0  0  0  0  0  0
  174.9070   23.7600   50.2820 C   0  0  0  0  0  0  0  0  0  0  0  0
  173.8220   24.4700   49.7650 C   0  0  0  0  0  0  0  0  0  0  0  0
  172.9110   25.0780   50.6310 C   0  0  0  0  0  0  0  0  0  0  0  0
  173.0840   24.9760   52.0130 C   0  0  0  0  0  0  0  0  0  0  0  0
  174.1670   24.2670   52.5260 C   0  0  0  0  0  0  0  0  0  0  0  0
  174.2770   24.2070   53.8880 O   0  0  0  0  0  0  0  0  0  0  0  0
  175.0780   23.6580   51.6580 C   0  0  0  0  0  0  0  0  0  0  0  0
  176.2300   22.9030   52.1560 C   0  0  0  0  0  0  0  0  0  0  0  0
  176.4550   22.7750   53.3580 O   0  0  0  0  0  0  0  0  0  0  0  0
  177.1320   22.2910   51.1530 C   0  0  0  0  0  0  0  0  0  0  0  0
  178.2240   21.5910   51.6340 O   0  0  0  0  0  0  0  0  0  0  0  0
  177.2480   20.7830   48.0450 C   0  0  0  0  0  0  0  0  0  0  0  0
  178.0210   20.2110   47.0150 C   0  0  0  0  0  0  0  0  0  0  0  0
  177.4780   19.0050   46.2930 C   0  0  0  0  0  0  0  0  0  0  0  0
  181.5202   19.2133   46.9431 H   0  0  0  0  0  0  0  0  0  0  0  0
  181.8449   19.0755   45.0708 H   0  0  0  0  0  0  0  0  0  0  0  0
  180.7051   22.3206   47.2073 H   0  0  0  0  0  0  0  0  0  0  0  0
  179.3121   23.3139   49.0072 H   0  0  0  0  0  0  0  0  0  0  0  0
  173.6849   24.5504   48.6765 H   0  0  0  0  0  0  0  0  0  0  0  0
  172.0560   25.6380   50.2242 H   0  0  0  0  0  0  0  0  0  0  0  0
  172.3660   25.4549   52.6950 H   0  0  0  0  0  0  0  0  0  0  0  0
  174.2640   24.9950   54.3950 H   0  0  0  0  0  0  0  0  0  0  0  0
  179.0890   21.9310   51.5110 H   0  0  0  0  0  0  0  0  0  0  0  0
  176.2738   20.3368   48.2936 H   0  0  0  0  0  0  0  0  0  0  0  0
  177.1419   18.2584   47.0276 H   0  0  0  0  0  0  0  0  0  0  0  0
  176.6289   19.3068   45.6622 H   0  0  0  0  0  0  0  0  0  0  0  0
  178.2668   18.5694   45.6622 H   0  0  0  0  0  0  0  0  0  0  0  0
  1  2  2  0
  2  3  1  0
  2  4  1  0
  4  5  2  0
  5  6  1  0
  6  7  2  0
  7  8  1  0
  8  9  1  0
  9 10  1  0
 10 11  2  0
 11 12  1  0
 12 13  2  0
 13 14  1  0
 14 15  1  0
 14 16  2  0
 16 17  1  0
 17 18  2  0
 17 19  1  0
 19 20  1  0
  7 21  1  0
 21 22  2  0
 22 23  1  0
 22  4  1  0
 19  8  2  0
 16 10  1  0
  1 24  1  0
  1 25  1  0
  5 26  1  0
  6 27  1  0
 11 28  1  0
 12 29  1  0
 13 30  1  0
 15 31  1  0
 20 32  1  0
 21 33  1  0
 23 34  1  0
 23 35  1  0
 23 36  1  0
M  END
>  <meeko>  (4) 
{"is_sidechain": [false], "free_energy": -7.592, "intermolecular_energy": -8.6, "internal_energy": -0.541}

$$$$
cand_015_out
     RDKit          3D

 36 38  0  0  0  0  0  0  0  0999 V2000
  176.7410   23.8060   48.5980 C   0  0  0  0  0  0  0  0  0  0  0  0
  176.7690   22.5010   48.8870 C   0  0  0  0  0  0  0  0  0  0  0  0
  176.1100   22.0850   49.9920 F   0  0  0  0  0  0  0  0  0  0  0  0
  177.4970   21.4860   48.1060 C   0  0  0  0  0  0  0  0  0  0  0  0
  178.8960   21.4040   48.2080 C   0  0  0  0  0  0  0  0  0  0  0  0
  179.6240   20.4710   47.4610 C   0  0  0  0  0  0  0  0  0  0  0  0
  178.9750   19.5930   46.5890 C   0  0  0  0  0  0  0  0  0  0  0  0
  179.7230   18.6190   45.7650 C   0  0  0  0  0  0  0  0  0  0  0  0
  179.2070   17.3310   45.8500 O   0  0  0  0  0  0  0  0  0  0  0  0
  179.8080   16.3280   45.1330 C   0  0  0  0  0  0  0  0  0  0  0  0
  179.2480   15.0530   45.2360 C   0  0  0  0  0  0  0  0  0  0  0  0
  179.8130   13.9850   44.5340 C   0  0  0  0  0  0  0  0  0  0  0  0
  180.9360   14.1920   43.7310 C   0  0  0  0  0  0  0  0  0  0  0  0
  181.4920   15.4650   43.6300 C   0  0  0  0  0  0  0  0  0  0  0  0
  182.5910   15.5980   42.8260 O   0  0  0  0  0  0  0  0  0  0  0  0
  180.9260   16.5330   44.3320 C   0  0  0  0  0  0  0  0  0  0  0  0
  181.4790   17.8860   44.2530 C   0  0  0  0  0  0  0  0  0  0  0  0
  182.4700   18.1470   43.5740 O   0  0  0  0  0  0  0  0  0  0  0  0
  180.8010   18.9480   45.0310 C   0  0  0  0  0  0  0  0  0  0  0  0
  181.3400   20.2210   44.9600 O   0  0  0  0  0  0  0  0  0  0  0  0
  177.5800   19.6840   46.4710 C   0  0  0  0  0  0  0  0  0  0  0  0
  176.8310   20.6110   47.2230 C   0  0  0  0  0  0  0  0  0  0  0  0
  175.3360   20.6460   47.0390 C   0  0  0  0  0  0  0  0  0  0  0  0
  177.2650   24.1835   47.7075 H   0  0  0  0  0  0  0  0  0  0  0  0
  176.1940   24.5023   49.2507 H   0  0  0  0  0  0  0  0  0  0  0  0
  179.4287   22.0856   48.8874 H   0  0  0  0  0  0  0  0  0  0  0  0
  180.7186   20.4284   47.5614 H   0  0  0  0  0  0  0  0  0  0  0  0
  178.3633   14.8895   45.8689 H   0  0  0  0  0  0  0  0  0  0  0  0
  179.3725   12.9803   44.6142 H   0  0  0  0  0  0  0  0  0  0  0  0
  181.3811   13.3511   43.1789 H   0  0  0  0  0  0  0  0  0  0  0  0
  183.3810   15.1380   43.0330 H   0  0  0  0  0  0  0  0  0  0  0  0
  181.7220   20.5240   44.1600 H   0  0  0  0  0  0  0  0  0  0  0  0
  177.0570   19.0139   45.7729 H   0  0  0  0  0  0  0  0  0  0  0  0
  174.8456   20.6575   48.0236 H   0  0  0  0  0  0  0  0  0  0  0  0
  175.0565   21.5509   46.4796 H   0  0  0  0  0  0  0  0  0  0  0  0
  175.0145   19.7551   46.4796 H   0  0  0  0  0  0  0  0  0  0  0  0
  1  2  2  0
  2  3  1  0
  2  4  1  0
  4  5  2  0
  5  6  1  0
  6  7  2  0
  7  8  1  0
  8  9  1  0
  9 10  1  0
 10 11  2  0
 11 12  1  0
 12 13  2  0
 13 14  1  0
 14 15  1  0
 14 16  2  0
 16 17  1  0
 17 18  2  0
 17 19  1  0
 19 20  1  0
  7 21  1  0
 21 22  2  0
 22 23  1  0
 22  4  1  0
 19  8  2  0
 16 10  1  0
  1 24  1  0
  1 25  1  0
  5 26  1  0
  6 27  1  0
 11 28  1  0
 12 29  1  0
 13 30  1  0
 15 31  1  0
 20 32  1  0
 21 33  1  0
 23 34  1  0
 23 35  1  0
 23 36  1  0
M  END
>  <meeko>  (5) 
{"is_sidechain": [false], "free_energy": -7.547, "intermolecular_energy": -8.77, "internal_energy": -0.318}

$$$$
cand_015_out
     RDKit          3D

 36 38  0  0  0  0  0  0  0  0999 V2000
  185.8870   23.9300   48.7780 C   0  0  0  0  0  0  0  0  0  0  0  0
  184.9920   23.4820   47.8910 C   0  0  0  0  0  0  0  0  0  0  0  0
  185.3740   23.3950   46.5970 F   0  0  0  0  0  0  0  0  0  0  0  0
  183.6050   23.1080   48.2180 C   0  0  0  0  0  0  0  0  0  0  0  0
  183.3390   21.8450   48.7760 C   0  0  0  0  0  0  0  0  0  0  0  0
  182.0320   21.4450   49.0740 C   0  0  0  0  0  0  0  0  0  0  0  0
  180.9510   22.2940   48.8240 C   0  0  0  0  0  0  0  0  0  0  0  0
  179.5580   21.8830   49.1010 C   0  0  0  0  0  0  0  0  0  0  0  0
  178.8400   21.5960   47.9460 O   0  0  0  0  0  0  0  0  0  0  0  0
  177.5310   21.2020   48.0610 C   0  0  0  0  0  0  0  0  0  0  0  0
  176.8520   20.9090   46.8760 C   0  0  0  0  0  0  0  0  0  0  0  0
  175.5160   20.5040   46.9220 C   0  0  0  0  0  0  0  0  0  0  0  0
  174.8600   20.3930   48.1490 C   0  0  0  0  0  0  0  0  0  0  0  0
  175.5400   20.6850   49.3280 C   0  0  0  0  0  0  0  0  0  0  0  0
  174.8370   20.5550   50.4950 O   0  0  0  0  0  0  0  0  0  0  0  0
  176.8770   21.0900   49.2830 C   0  0  0  0  0  0  0  0  0  0  0  0
  177.6280   21.4060   50.4990 C   0  0  0  0  0  0  0  0  0  0  0  0
  177.1180   21.3390   51.6150 O   0  0  0  0  0  0  0  0  0  0  0  0
  179.0420   21.8190   50.3410 C   0  0  0  0  0  0  0  0  0  0  0  0
  179.7390   22.1290   51.4960 O   0  0  0  0  0  0  0  0  0  0  0  0
  181.2110   23.5480   48.2510 C   0  0  0  0  0  0  0  0  0  0  0  0
  182.5220   23.9710   47.9530 C   0  0  0  0  0  0  0  0  0  0  0  0
  182.7160   25.3320   47.3390 C   0  0  0  0  0  0  0  0  0  0  0  0
  185.6137   24.0149   49.8401 H   0  0  0  0  0  0  0  0  0  0  0  0
  186.8965   24.2136   48.4455 H   0  0  0  0  0  0  0  0  0  0  0  0
  184.1739   21.1590   48.9819 H   0  0  0  0  0  0  0  0  0  0  0  0
  181.8534   20.4510   49.5100 H   0  0  0  0  0  0  0  0  0  0  0  0
  177.3683   20.9970   45.9087 H   0  0  0  0  0  0  0  0  0  0  0  0
  174.9800   20.2722   45.9898 H   0  0  0  0  0  0  0  0  0  0  0  0
  173.8075   20.0753   48.1843 H   0  0  0  0  0  0  0  0  0  0  0  0
  173.9320   20.3150   50.4730 H   0  0  0  0  0  0  0  0  0  0  0  0
  179.3260   22.0330   52.3320 H   0  0  0  0  0  0  0  0  0  0  0  0
  180.3686   24.2194   48.0282 H   0  0  0  0  0  0  0  0  0  0  0  0
  182.8229   26.0821   48.1364 H   0  0  0  0  0  0  0  0  0  0  0  0
  183.6226   25.3274   46.7160 H   0  0  0  0  0  0  0  0  0  0  0  0
  181.8443   25.5808   46.7160 H   0  0  0  0  0  0  0  0  0  0  0  0
  1  2  2  0
  2  3  1  0
  2  4  1  0
  4  5  2  0
  5  6  1  0
  6  7  2  0
  7  8  1  0
  8  9  1  0
  9 10  1  0
 10 11  2  0
 11 12  1  0
 12 13  2  0
 13 14  1  0
 14 15  1  0
 14 16  2  0
 16 17  1  0
 17 18  2  0
 17 19  1  0
 19 20  1  0
  7 21  1  0
 21 22  2  0
 22 23  1  0
 22  4  1  0
 19  8  2  0
 16 10  1  0
  1 24  1  0
  1 25  1  0
  5 26  1  0
  6 27  1  0
 11 28  1  0
 12 29  1  0
 13 30  1  0
 15 31  1  0
 20 32  1  0
 21 33  1  0
 23 34  1  0
 23 35  1  0
 23 36  1  0
M  END
>  <meeko>  (6) 
{"is_sidechain": [false], "free_energy": -7.404, "intermolecular_energy": -8.369, "internal_energy": -0.551}

$$$$
cand_015_out
     RDKit          3D

 36 38  0  0  0  0  0  0  0  0999 V2000
  175.3900   19.7550   47.6260 C   0  0  0  0  0  0  0  0  0  0  0  0
  176.0780   20.7200   47.0090 C   0  0  0  0  0  0  0  0  0  0  0  0
  175.4780   21.3700   45.9870 F   0  0  0  0  0  0  0  0  0  0  0  0
  177.4620   21.1040   47.3410 C   0  0  0  0  0  0  0  0  0  0  0  0
  178.5180   20.2310   47.0270 C   0  0  0  0  0  0  0  0  0  0  0  0
  179.8420   20.5490   47.3510 C   0  0  0  0  0  0  0  0  0  0  0  0
  180.1490   21.7490   47.9980 C   0  0  0  0  0  0  0  0  0  0  0  0
  181.5350   22.0950   48.3790 C   0  0  0  0  0  0  0  0  0  0  0  0
  182.2920   22.5550   47.3070 O   0  0  0  0  0  0  0  0  0  0  0  0
  183.5980   22.9120   47.5220 C   0  0  0  0  0  0  0  0  0  0  0  0
  184.3160   23.3820   46.4210 C   0  0  0  0  0  0  0  0  0  0  0  0
  185.6520   23.7600   46.5710 C   0  0  0  0  0  0  0  0  0  0  0  0
  186.2700   23.6680   47.8200 C   0  0  0  0  0  0  0  0  0  0  0  0
  185.5520   23.1990   48.9160 C   0  0  0  0  0  0  0  0  0  0  0  0
  186.2170   23.1340   50.1100 O   0  0  0  0  0  0  0  0  0  0  0  0
  184.2140   22.8210   48.7660 C   0  0  0  0  0  0  0  0  0  0  0  0
  183.4230   22.3230   49.8930 C   0  0  0  0  0  0  0  0  0  0  0  0
  183.8970   22.2060   51.0200 O   0  0  0  0  0  0  0  0  0  0  0  0
  182.0130   21.9560   49.6290 C   0  0  0  0  0  0  0  0  0  0  0  0
  181.2780   21.4740   50.6970 O   0  0  0  0  0  0  0  0  0  0  0  0
  179.0960   22.6140   48.3280 C   0  0  0  0  0  0  0  0  0  0  0  0
  177.7580   22.3140   48.0010 C   0  0  0  0  0  0  0  0  0  0  0  0
  176.6850   23.2960   48.3900 C   0  0  0  0  0  0  0  0  0  0  0  0
  175.8450   19.2037   48.4621 H   0  0  0  0  0  0  0  0  0  0  0  0
  174.3686   19.5119   47.2979 H   0  0  0  0  0  0  0  0  0  0  0  0
  178.2999   19.2808   46.5175 H   0  0  0  0  0  0  0  0  0  0  0  0
  180.6490   19.8472   47.0937 H   0  0  0  0  0  0  0  0  0  0  0  0
  183.8302   23.4545   45.4368 H   0  0  0  0  0  0  0  0  0  0  0  0
  186.2184   24.1308   45.7040 H   0  0  0  0  0  0  0  0  0  0  0  0
  187.3224   23.9657   47.9373 H   0  0  0  0  0  0  0  0  0  0  0  0
  185.8870   23.5940   50.8560 H   0  0  0  0  0  0  0  0  0  0  0  0
  180.8700   20.6320   50.6430 H   0  0  0  0  0  0  0  0  0  0  0  0
  179.3201   23.5523   48.8565 H   0  0  0  0  0  0  0  0  0  0  0  0
  176.6214   23.3542   49.4866 H   0  0  0  0  0  0  0  0  0  0  0  0
  176.9312   24.2882   47.9838 H   0  0  0  0  0  0  0  0  0  0  0  0
  175.7185   22.9630   47.9838 H   0  0  0  0  0  0  0  0  0  0  0  0
  1  2  2  0
  2  3  1  0
  2  4  1  0
  4  5  2  0
  5  6  1  0
  6  7  2  0
  7  8  1  0
  8  9  1  0
  9 10  1  0
 10 11  2  0
 11 12  1  0
 12 13  2  0
 13 14  1  0
 14 15  1  0
 14 16  2  0
 16 17  1  0
 17 18  2  0
 17 19  1  0
 19 20  1  0
  7 21  1  0
 21 22  2  0
 22 23  1  0
 22  4  1  0
 19  8  2  0
 16 10  1  0
  1 24  1  0
  1 25  1  0
  5 26  1  0
  6 27  1  0
 11 28  1  0
 12 29  1  0
 13 30  1  0
 15 31  1  0
 20 32  1  0
 21 33  1  0
 23 34  1  0
 23 35  1  0
 23 36  1  0
M  END
>  <meeko>  (7) 
{"is_sidechain": [false], "free_energy": -7.358, "intermolecular_energy": -8.31, "internal_energy": -0.555}

$$$$
cand_015_out
     RDKit          3D

 36 38  0  0  0  0  0  0  0  0999 V2000
  175.5690   18.9670   47.2950 C   0  0  0  0  0  0  0  0  0  0  0  0
  175.9680   20.2420   47.2410 C   0  0  0  0  0  0  0  0  0  0  0  0
  175.2480   21.0960   46.4800 F   0  0  0  0  0  0  0  0  0  0  0  0
  177.1580   20.7760   47.9250 C   0  0  0  0  0  0  0  0  0  0  0  0
  177.0610   21.1920   49.2640 C   0  0  0  0  0  0  0  0  0  0  0  0
  178.1630   21.7300   49.9390 C   0  0  0  0  0  0  0  0  0  0  0  0
  179.3950   21.8690   49.2950 C   0  0  0  0  0  0  0  0  0  0  0  0
  180.5660   22.4620   49.9740 C   0  0  0  0  0  0  0  0  0  0  0  0
  180.4120   23.8190   50.2310 O   0  0  0  0  0  0  0  0  0  0  0  0
  181.4270   24.4950   50.8580 C   0  0  0  0  0  0  0  0  0  0  0  0
  181.2230   25.8530   51.1100 C   0  0  0  0  0  0  0  0  0  0  0  0
  182.2180   26.6010   51.7440 C   0  0  0  0  0  0  0  0  0  0  0  0
  183.4150   25.9910   52.1260 C   0  0  0  0  0  0  0  0  0  0  0  0
  183.6150   24.6370   51.8740 C   0  0  0  0  0  0  0  0  0  0  0  0
  184.8100   24.1030   52.2740 O   0  0  0  0  0  0  0  0  0  0  0  0
  182.6190   23.8890   51.2400 C   0  0  0  0  0  0  0  0  0  0  0  0
  182.7890   22.4630   50.9570 C   0  0  0  0  0  0  0  0  0  0  0  0
  183.8160   21.8570   51.2550 O   0  0  0  0  0  0  0  0  0  0  0  0
  181.6700   21.7600   50.2870 C   0  0  0  0  0  0  0  0  0  0  0  0
  181.8460   20.4160   50.0120 O   0  0  0  0  0  0  0  0  0  0  0  0
  179.4910   21.4710   47.9520 C   0  0  0  0  0  0  0  0  0  0  0  0
  178.3940   20.9190   47.2610 C   0  0  0  0  0  0  0  0  0  0  0  0
  178.5790   20.5170   45.8220 C   0  0  0  0  0  0  0  0  0  0  0  0
  176.1284   18.2409   47.9032 H   0  0  0  0  0  0  0  0  0  0  0  0
  174.6814   18.6441   46.7312 H   0  0  0  0  0  0  0  0  0  0  0  0
  176.1009   21.0929   49.7916 H   0  0  0  0  0  0  0  0  0  0  0  0
  178.0579   22.0466   50.9872 H   0  0  0  0  0  0  0  0  0  0  0  0
  180.2801   26.3333   50.8097 H   0  0  0  0  0  0  0  0  0  0  0  0
  182.0587   27.6711   51.9425 H   0  0  0  0  0  0  0  0  0  0  0  0
  184.1985   26.5799   52.6253 H   0  0  0  0  0  0  0  0  0  0  0  0
  185.6140   24.4560   51.9460 H   0  0  0  0  0  0  0  0  0  0  0  0
  181.8850   20.1210   49.1240 H   0  0  0  0  0  0  0  0  0  0  0  0
  180.4487   21.5934   47.4249 H   0  0  0  0  0  0  0  0  0  0  0  0
  179.0385   19.5186   45.7764 H   0  0  0  0  0  0  0  0  0  0  0  0
  177.6010   20.4939   45.3191 H   0  0  0  0  0  0  0  0  0  0  0  0
  179.2327   21.2448   45.3191 H   0  0  0  0  0  0  0  0  0  0  0  0
  1  2  2  0
  2  3  1  0
  2  4  1  0
  4  5  2  0
  5  6  1  0
  6  7  2  0
  7  8  1  0
  8  9  1  0
  9 10  1  0
 10 11  2  0
 11 12  1  0
 12 13  2  0
 13 14  1  0
 14 15  1  0
 14 16  2  0
 16 17  1  0
 17 18  2  0
 17 19  1  0
 19 20  1  0
  7 21  1  0
 21 22  2  0
 22 23  1  0
 22  4  1  0
 19  8  2  0
 16 10  1  0
  1 24  1  0
  1 25  1  0
  5 26  1  0
  6 27  1  0
 11 28  1  0
 12 29  1  0
 13 30  1  0
 15 31  1  0
 20 32  1  0
 21 33  1  0
 23 34  1  0
 23 35  1  0
 23 36  1  0
M  END
>  <meeko>  (8) 
{"is_sidechain": [false], "free_energy": -7.207, "intermolecular_energy": -8.195, "internal_energy": -0.494}

$$$$
cand_015_out
     RDKit          3D

 36 38  0  0  0  0  0  0  0  0999 V2000
  171.4900   24.5610   52.6980 C   0  0  0  0  0  0  0  0  0  0  0  0
  172.3630   25.0120   51.7910 C   0  0  0  0  0  0  0  0  0  0  0  0
  172.3860   26.3400   51.5420 F   0  0  0  0  0  0  0  0  0  0  0  0
  173.2790   24.1570   51.0160 C   0  0  0  0  0  0  0  0  0  0  0  0
  174.4630   23.6880   51.6120 C   0  0  0  0  0  0  0  0  0  0  0  0
  175.3700   22.8970   50.8990 C   0  0  0  0  0  0  0  0  0  0  0  0
  175.1230   22.5520   49.5680 C   0  0  0  0  0  0  0  0  0  0  0  0
  176.0790   21.7430   48.7820 C   0  0  0  0  0  0  0  0  0  0  0  0
  177.3260   22.3460   48.6640 O   0  0  0  0  0  0  0  0  0  0  0  0
  178.3100   21.7010   47.9580 C   0  0  0  0  0  0  0  0  0  0  0  0
  179.5510   22.3350   47.8770 C   0  0  0  0  0  0  0  0  0  0  0  0
  180.5960   21.7340   47.1710 C   0  0  0  0  0  0  0  0  0  0  0  0
  180.4000   20.5010   46.5470 C   0  0  0  0  0  0  0  0  0  0  0  0
  179.1610   19.8700   46.6290 C   0  0  0  0  0  0  0  0  0  0  0  0
  179.0370   18.6650   45.9950 O   0  0  0  0  0  0  0  0  0  0  0  0
  178.1160   20.4720   47.3360 C   0  0  0  0  0  0  0  0  0  0  0  0
  176.7990   19.8430   47.4480 C   0  0  0  0  0  0  0  0  0  0  0  0
  176.5460   18.7630   46.9200 O   0  0  0  0  0  0  0  0  0  0  0  0
  175.7620   20.5610   48.2250 C   0  0  0  0  0  0  0  0  0  0  0  0
  174.5160   19.9640   48.3130 O   0  0  0  0  0  0  0  0  0  0  0  0
  173.9520   23.0330   48.9630 C   0  0  0  0  0  0  0  0  0  0  0  0
  173.0220   23.8230   49.6700 C   0  0  0  0  0  0  0  0  0  0  0  0
  171.7890   24.3010   48.9490 C   0  0  0  0  0  0  0  0  0  0  0  0
  171.4415   23.4864   52.9279 H   0  0  0  0  0  0  0  0  0  0  0  0
  170.8204   25.2646   53.2142 H   0  0  0  0  0  0  0  0  0  0  0  0
  174.6801   23.9480   52.6586 H   0  0  0  0  0  0  0  0  0  0  0  0
  176.2875   22.5428   51.3916 H   0  0  0  0  0  0  0  0  0  0  0  0
  179.7059   23.3068   48.3685 H   0  0  0  0  0  0  0  0  0  0  0  0
  181.5742   22.2330   47.1068 H   0  0  0  0  0  0  0  0  0  0  0  0
  181.2230   20.0282   45.9911 H   0  0  0  0  0  0  0  0  0  0  0  0
  178.9670   17.8760   46.4960 H   0  0  0  0  0  0  0  0  0  0  0  0
  174.2290   19.5970   49.1260 H   0  0  0  0  0  0  0  0  0  0  0  0
  173.7541   22.7874   47.9092 H   0  0  0  0  0  0  0  0  0  0  0  0
  171.0260   24.5968   49.6840 H   0  0  0  0  0  0  0  0  0  0  0  0
  172.0449   25.1651   48.3182 H   0  0  0  0  0  0  0  0  0  0  0  0
  171.3956   23.4902   48.3182 H   0  0  0  0  0  0  0  0  0  0  0  0
  1  2  2  0
  2  3  1  0
  2  4  1  0
  4  5  2  0
  5  6  1  0
  6  7  2  0
  7  8  1  0
  8  9  1  0
  9 10  1  0
 10 11  2  0
 11 12  1  0
 12 13  2  0
 13 14  1  0
 14 15  1  0
 14 16  2  0
 16 17  1  0
 17 18  2  0
 17 19  1  0
 19 20  1  0
  7 21  1  0
 21 22  2  0
 22 23  1  0
 22  4  1  0
 19  8  2  0
 16 10  1  0
  1 24  1  0
  1 25  1  0
  5 26  1  0
  6 27  1  0
 11 28  1  0
 12 29  1  0
 13 30  1  0
 15 31  1  0
 20 32  1  0
 21 33  1  0
 23 34  1  0
 23 35  1  0
 23 36  1  0
M  END
>  <meeko>  (9) 
{"is_sidechain": [false], "free_energy": -7.112, "intermolecular_energy": -8.148, "internal_energy": -0.428}

$$$$
