cand_014_out
     RDKit          3D

 35 37  0  0  0  0  0  0  0  0999 V2000
  182.0780   15.1610   42.6950 C   0  0  0  0  0  0  0  0  0  0  0  0
  181.3610   16.1190   43.6070 C   0  0  0  0  0  0  0  0  0  0  0  0
  181.6580   17.4870   43.5250 C   0  0  0  0  0  0  0  0  0  0  0  0
  181.0230   18.4100   44.3610 C   0  0  0  0  0  0  0  0  0  0  0  0
  180.0750   17.9900   45.2990 C   0  0  0  0  0  0  0  0  0  0  0  0
  179.4280   18.9800   46.1860 C   0  0  0  0  0  0  0  0  0  0  0  0
  178.0410   18.9110   46.1550 O   0  0  0  0  0  0  0  0  0  0  0  0
  177.3180   19.7790   46.9320 C   0  0  0  0  0  0  0  0  0  0  0  0
  175.9270   19.6890   46.8580 C   0  0  0  0  0  0  0  0  0  0  0  0
  175.1320   20.5420   47.6260 C   0  0  0  0  0  0  0  0  0  0  0  0
  175.7260   21.4850   48.4680 C   0  0  0  0  0  0  0  0  0  0  0  0
  177.1130   21.5730   48.5400 C   0  0  0  0  0  0  0  0  0  0  0  0
  177.6280   22.5170   49.3850 O   0  0  0  0  0  0  0  0  0  0  0  0
  177.9090   20.7200   47.7710 C   0  0  0  0  0  0  0  0  0  0  0  0
  179.3700   20.7800   47.8170 C   0  0  0  0  0  0  0  0  0  0  0  0
  179.9680   21.5760   48.5390 O   0  0  0  0  0  0  0  0  0  0  0  0
  180.1230   19.8380   46.9570 C   0  0  0  0  0  0  0  0  0  0  0  0
  181.5030   19.8920   47.0170 O   0  0  0  0  0  0  0  0  0  0  0  0
  179.7940   16.6200   45.3960 C   0  0  0  0  0  0  0  0  0  0  0  0
  180.4290   15.6740   44.5670 C   0  0  0  0  0  0  0  0  0  0  0  0
  180.0600   14.2140   44.7060 C   0  0  0  0  0  0  0  0  0  0  0  0
  178.7420   14.0120   44.9920 F   0  0  0  0  0  0  0  0  0  0  0  0
  180.7450   13.5790   45.6980 F   0  0  0  0  0  0  0  0  0  0  0  0
  182.6294   14.4242   43.2976 H   0  0  0  0  0  0  0  0  0  0  0  0
  181.3453   14.6410   42.0603 H   0  0  0  0  0  0  0  0  0  0  0  0
  182.7835   15.7173   42.0603 H   0  0  0  0  0  0  0  0  0  0  0  0
  182.4004   17.8384   42.7933 H   0  0  0  0  0  0  0  0  0  0  0  0
  181.2718   19.4784   44.2800 H   0  0  0  0  0  0  0  0  0  0  0  0
  175.4577   18.9469   46.1954 H   0  0  0  0  0  0  0  0  0  0  0  0
  174.0358   20.4713   47.5679 H   0  0  0  0  0  0  0  0  0  0  0  0
  175.0989   22.1565   49.0728 H   0  0  0  0  0  0  0  0  0  0  0  0
  178.5530   22.5560   49.5350 H   0  0  0  0  0  0  0  0  0  0  0  0
  182.0060   19.1030   46.9740 H   0  0  0  0  0  0  0  0  0  0  0  0
  179.0591   16.2748   46.1381 H   0  0  0  0  0  0  0  0  0  0  0  0
  180.3166   13.8038   43.7181 H   0  0  0  0  0  0  0  0  0  0  0  0
  1  2  1  0
  2  3  2  0
  3  4  1  0
  4  5  2  0
  5  6  1  0
  6  7  1  0
  7  8  1  0
  8  9  2  0
  9 10  1  0
 10 11  2  0
 11 12  1  0
 12 13  1  0
 12 14  2  0
 14 15  1  0
 15 16  2  0
 15 17  1  0
 17 18  1  0
  5 19  1  0
 19 20  2  0
 20 21  1  0
 21 22  1  0
 21 23  1  0
 20  2  1  0
 17  6  2  0
 14  8  1  0
  1 24  1  0
  1 25  1  0
  1 26  1  0
  3 27  1  0
  4 28  1  0
  9 29  1  0
 10 30  1  0
 11 31  1  0
 13 32  1  0
 18 33  1  0
 19 34  1  0
 21 35  1  0
M  END
>  <meeko>  (1) 
{"is_sidechain": [false], "free_energy": -8.063, "intermolecular_energy": -9.477, "internal_energy": -0.315}

$$$$
cand_014_out
     RDKit          3D

 35 37  0  0  0  0  0  0  0  0999 V2000
  176.4130   18.3500   46.1920 C   0  0  0  0  0  0  0  0  0  0  0  0
  176.3590   19.4160   47.2520 C   0  0  0  0  0  0  0  0  0  0  0  0
  175.2380   19.4810   48.0930 C   0  0  0  0  0  0  0  0  0  0  0  0
  175.1410   20.4620   49.0830 C   0  0  0  0  0  0  0  0  0  0  0  0
  176.1610   21.4030   49.2610 C   0  0  0  0  0  0  0  0  0  0  0  0
  176.0310   22.4430   50.3020 C   0  0  0  0  0  0  0  0  0  0  0  0
  175.4770   23.6230   49.8220 O   0  0  0  0  0  0  0  0  0  0  0  0
  175.3050   24.6730   50.6880 C   0  0  0  0  0  0  0  0  0  0  0  0
  174.7620   25.8460   50.1630 C   0  0  0  0  0  0  0  0  0  0  0  0
  174.5570   26.9510   50.9910 C   0  0  0  0  0  0  0  0  0  0  0  0
  174.8940   26.8840   52.3440 C   0  0  0  0  0  0  0  0  0  0  0  0
  175.4350   25.7130   52.8660 C   0  0  0  0  0  0  0  0  0  0  0  0
  175.7420   25.7150   54.2000 O   0  0  0  0  0  0  0  0  0  0  0  0
  175.6410   24.6070   52.0380 C   0  0  0  0  0  0  0  0  0  0  0  0
  176.2080   23.3580   52.5470 C   0  0  0  0  0  0  0  0  0  0  0  0
  176.5220   23.2160   53.7270 O   0  0  0  0  0  0  0  0  0  0  0  0
  176.3930   22.2470   51.5830 C   0  0  0  0  0  0  0  0  0  0  0  0
  176.9170   21.0660   52.0760 O   0  0  0  0  0  0  0  0  0  0  0  0
  177.2710   21.3510   48.4050 C   0  0  0  0  0  0  0  0  0  0  0  0
  177.3830   20.3740   47.3960 C   0  0  0  0  0  0  0  0  0  0  0  0
  178.6190   20.3590   46.5260 C   0  0  0  0  0  0  0  0  0  0  0  0
  179.6200   19.5730   47.0170 F   0  0  0  0  0  0  0  0  0  0  0  0
  179.1770   21.5910   46.3630 F   0  0  0  0  0  0  0  0  0  0  0  0
  176.4631   17.3603   46.6695 H   0  0  0  0  0  0  0  0  0  0  0  0
  175.5107   18.4097   45.5657 H   0  0  0  0  0  0  0  0  0  0  0  0
  177.3047   18.5005   45.5657 H   0  0  0  0  0  0  0  0  0  0  0  0
  174.4249   18.7502   47.9714 H   0  0  0  0  0  0  0  0  0  0  0  0
  174.2522   20.4950   49.7302 H   0  0  0  0  0  0  0  0  0  0  0  0
  174.4955   25.9001   49.0971 H   0  0  0  0  0  0  0  0  0  0  0  0
  174.1293   27.8759   50.5767 H   0  0  0  0  0  0  0  0  0  0  0  0
  174.7322   27.7550   52.9961 H   0  0  0  0  0  0  0  0  0  0  0  0
  176.4610   25.2030   54.5160 H   0  0  0  0  0  0  0  0  0  0  0  0
  176.3510   20.4280   52.4650 H   0  0  0  0  0  0  0  0  0  0  0  0
  178.0749   22.0922   48.5246 H   0  0  0  0  0  0  0  0  0  0  0  0
  178.2384   19.9639   45.5726 H   0  0  0  0  0  0  0  0  0  0  0  0
  1  2  1  0
  2  3  2  0
  3  4  1  0
  4  5  2  0
  5  6  1  0
  6  7  1  0
  7  8  1  0
  8  9  2  0
  9 10  1  0
 10 11  2  0
 11 12  1  0
 12 13  1  0
 12 14  2  0
 14 15  1  0
 15 16  2  0
 15 17  1  0
 17 18  1  0
  5 19  1  0
 19 20  2  0
 20 21  1  0
 21 22  1  0
 21 23  1  0
 20  2  1  0
 17  6  2  0
 14  8  1  0
  1 24  1  0
  1 25  1  0
  1 26  1  0
  3 27  1  0
  4 28  1  0
  9 29  1  0
 10 30  1  0
 11 31  1  0
 13 32  1  0
 18 33  1  0
 19 34  1  0
 21 35  1  0
M  END
>  <meeko>  (2) 
{"is_sidechain": [false], "free_energy": -7.631, "intermolecular_energy": -8.735, "internal_energy": -0.549}

$$$$
cand_014_out
     RDKit          3D

 35 37  0  0  0  0  0  0  0  0999 V2000
  181.2360   14.3560   42.0480 C   0  0  0  0  0  0  0  0  0  0  0  0
  180.9950   15.5090   42.9840 C   0  0  0  0  0  0  0  0  0  0  0  0
  181.3570   16.8020   42.5790 C   0  0  0  0  0  0  0  0  0  0  0  0
  181.1610   17.8980   43.4220 C   0  0  0  0  0  0  0  0  0  0  0  0
  180.5960   17.7330   44.6910 C   0  0  0  0  0  0  0  0  0  0  0  0
  180.4130   18.9040   45.5740 C   0  0  0  0  0  0  0  0  0  0  0  0
  181.5500   19.6980   45.6630 O   0  0  0  0  0  0  0  0  0  0  0  0
  181.5140   20.8170   46.4560 C   0  0  0  0  0  0  0  0  0  0  0  0
  182.6820   21.5770   46.5320 C   0  0  0  0  0  0  0  0  0  0  0  0
  182.7130   22.7300   47.3180 C   0  0  0  0  0  0  0  0  0  0  0  0
  181.5770   23.1240   48.0280 C   0  0  0  0  0  0  0  0  0  0  0  0
  180.4130   22.3650   47.9510 C   0  0  0  0  0  0  0  0  0  0  0  0
  179.3370   22.8080   48.6700 O   0  0  0  0  0  0  0  0  0  0  0  0
  180.3820   21.2100   47.1640 C   0  0  0  0  0  0  0  0  0  0  0  0
  179.1790   20.3840   47.0550 C   0  0  0  0  0  0  0  0  0  0  0  0
  178.1370   20.6680   47.6410 O   0  0  0  0  0  0  0  0  0  0  0  0
  179.2530   19.1750   46.2020 C   0  0  0  0  0  0  0  0  0  0  0  0
  178.1090   18.4080   46.0940 O   0  0  0  0  0  0  0  0  0  0  0  0
  180.2540   16.4380   45.1050 C   0  0  0  0  0  0  0  0  0  0  0  0
  180.4510   15.3190   44.2720 C   0  0  0  0  0  0  0  0  0  0  0  0
  180.0360   13.9530   44.7700 C   0  0  0  0  0  0  0  0  0  0  0  0
  178.7210   13.8800   45.1250 F   0  0  0  0  0  0  0  0  0  0  0  0
  180.7280   13.5500   45.8730 F   0  0  0  0  0  0  0  0  0  0  0  0
  181.4267   13.4435   42.6318 H   0  0  0  0  0  0  0  0  0  0  0  0
  180.3496   14.2070   41.4139 H   0  0  0  0  0  0  0  0  0  0  0  0
  182.1079   14.5745   41.4139 H   0  0  0  0  0  0  0  0  0  0  0  0
  181.8011   16.9549   41.5843 H   0  0  0  0  0  0  0  0  0  0  0  0
  181.4544   18.9029   43.0841 H   0  0  0  0  0  0  0  0  0  0  0  0
  183.5774   21.2676   45.9730 H   0  0  0  0  0  0  0  0  0  0  0  0
  183.6336   23.3291   47.3782 H   0  0  0  0  0  0  0  0  0  0  0  0
  181.6021   24.0328   48.6472 H   0  0  0  0  0  0  0  0  0  0  0  0
  178.4970   22.8800   48.2590 H   0  0  0  0  0  0  0  0  0  0  0  0
  177.6960   18.0700   46.8640 H   0  0  0  0  0  0  0  0  0  0  0  0
  179.8209   16.2919   46.1055 H   0  0  0  0  0  0  0  0  0  0  0  0
  180.2483   13.3060   43.9061 H   0  0  0  0  0  0  0  0  0  0  0  0
  1  2  1  0
  2  3  2  0
  3  4  1  0
  4  5  2  0
  5  6  1  0
  6  7  1  0
  7  8  1  0
  8  9  2  0
  9 10  1  0
 10 11  2  0
 11 12  1  0
 12 13  1  0
 12 14  2  0
 14 15  1  0
 15 16  2  0
 15 17  1  0
 17 18  1  0
  5 19  1  0
 19 20  2  0
 20 21  1  0
 21 22  1  0
 21 23  1  0
 20  2  1  0
 17  6  2  0
 14  8  1  0
  1 24  1  0
  1 25  1  0
  1 26  1  0
  3 27  1  0
  4 28  1  0
  9 29  1  0
 10 30  1  0
 11 31  1  0
 13 32  1  0
 18 33  1  0
 19 34  1  0
 21 35  1  0
M  END
>  <meeko>  (3) 
{"is_sidechain": [false], "free_energy": -7.533, "intermolecular_energy": -8.871, "internal_energy": -0.298}

$$$$
cand_014_out
     RDKit          3D

 35 37  0  0  0  0  0  0  0  0999 V2000
  177.8570   21.1560   46.4500 C   0  0  0  0  0  0  0  0  0  0  0  0
  176.9240   21.6050   47.5420 C   0  0  0  0  0  0  0  0  0  0  0  0
  176.9920   22.9320   47.9920 C   0  0  0  0  0  0  0  0  0  0  0  0
  176.1520   23.3870   49.0110 C   0  0  0  0  0  0  0  0  0  0  0  0
  175.2210   22.5300   49.6070 C   0  0  0  0  0  0  0  0  0  0  0  0
  174.3540   23.0270   50.6950 C   0  0  0  0  0  0  0  0  0  0  0  0
  175.0660   23.3900   51.8320 O   0  0  0  0  0  0  0  0  0  0  0  0
  174.3780   23.8660   52.9190 C   0  0  0  0  0  0  0  0  0  0  0  0
  175.1290   24.2030   54.0460 C   0  0  0  0  0  0  0  0  0  0  0  0
  174.4910   24.6960   55.1860 C   0  0  0  0  0  0  0  0  0  0  0  0
  173.1040   24.8520   55.2000 C   0  0  0  0  0  0  0  0  0  0  0  0
  172.3570   24.5150   54.0750 C   0  0  0  0  0  0  0  0  0  0  0  0
  171.0030   24.6940   54.1560 O   0  0  0  0  0  0  0  0  0  0  0  0
  172.9950   24.0210   52.9340 C   0  0  0  0  0  0  0  0  0  0  0  0
  172.2470   23.6550   51.7310 C   0  0  0  0  0  0  0  0  0  0  0  0
  171.0250   23.7720   51.6610 O   0  0  0  0  0  0  0  0  0  0  0  0
  173.0170   23.1330   50.5780 C   0  0  0  0  0  0  0  0  0  0  0  0
  172.3040   22.8030   49.4410 O   0  0  0  0  0  0  0  0  0  0  0  0
  175.1680   21.1980   49.1720 C   0  0  0  0  0  0  0  0  0  0  0  0
  176.0120   20.7180   48.1510 C   0  0  0  0  0  0  0  0  0  0  0  0
  175.8840   19.2770   47.7120 C   0  0  0  0  0  0  0  0  0  0  0  0
  174.7420   19.0210   47.0130 F   0  0  0  0  0  0  0  0  0  0  0  0
  175.8730   18.3980   48.7530 F   0  0  0  0  0  0  0  0  0  0  0  0
  178.7625   20.7203   46.8975 H   0  0  0  0  0  0  0  0  0  0  0  0
  177.3558   20.4005   45.8271 H   0  0  0  0  0  0  0  0  0  0  0  0
  178.1347   22.0191   45.8271 H   0  0  0  0  0  0  0  0  0  0  0  0
  177.7163   23.6232   47.5364 H   0  0  0  0  0  0  0  0  0  0  0  0
  176.2235   24.4314   49.3487 H   0  0  0  0  0  0  0  0  0  0  0  0
  176.2221   24.0804   54.0362 H   0  0  0  0  0  0  0  0  0  0  0  0
  175.0824   24.9619   56.0745 H   0  0  0  0  0  0  0  0  0  0  0  0
  172.6023   25.2406   56.0985 H   0  0  0  0  0  0  0  0  0  0  0  0
  170.5240   24.3260   54.8730 H   0  0  0  0  0  0  0  0  0  0  0  0
  172.0670   21.9110   49.2780 H   0  0  0  0  0  0  0  0  0  0  0  0
  174.4487   20.5099   49.6401 H   0  0  0  0  0  0  0  0  0  0  0  0
  176.7729   19.1366   47.0794 H   0  0  0  0  0  0  0  0  0  0  0  0
  1  2  1  0
  2  3  2  0
  3  4  1  0
  4  5  2  0
  5  6  1  0
  6  7  1  0
  7  8  1  0
  8  9  2  0
  9 10  1  0
 10 11  2  0
 11 12  1  0
 12 13  1  0
 12 14  2  0
 14 15  1  0
 15 16  2  0
 15 17  1  0
 17 18  1  0
  5 19  1  0
 19 20  2  0
 20 21  1  0
 21 22  1  0
 21 23  1  0
 20  2  1  0
 17  6  2  0
 14  8  1  0
  1 24  1  0
  1 25  1  0
  1 26  1  0
  3 27  1  0
  4 28  1  0
  9 29  1  0
 10 30  1  0
 11 31  1  0
 13 32  1  0
 18 33  1  0
 19 34  1  0
 21 35  1  0
M  END
>  <meeko>  (4) 
{"is_sidechain": [false], "free_energy": -7.511, "intermolecular_energy": -8.68, "internal_energy": -0.462}

$$$$
cand_014_out
     RDKit          3D

 35 37  0  0  0  0  0  0  0  0999 V2000
  182.2550   21.1370   46.2530 C   0  0  0  0  0  0  0  0  0  0  0  0
  181.0990   21.4780   47.1540 C   0  0  0  0  0  0  0  0  0  0  0  0
  181.2850   22.4300   48.1670 C   0  0  0  0  0  0  0  0  0  0  0  0
  180.2420   22.7680   49.0330 C   0  0  0  0  0  0  0  0  0  0  0  0
  178.9860   22.1660   48.9090 C   0  0  0  0  0  0  0  0  0  0  0  0
  177.9020   22.5240   49.8470 C   0  0  0  0  0  0  0  0  0  0  0  0
  176.8480   23.1870   49.2290 O   0  0  0  0  0  0  0  0  0  0  0  0
  175.7760   23.5790   49.9900 C   0  0  0  0  0  0  0  0  0  0  0  0
  174.7480   24.2570   49.3350 C   0  0  0  0  0  0  0  0  0  0  0  0
  173.6270   24.6810   50.0500 C   0  0  0  0  0  0  0  0  0  0  0  0
  173.5330   24.4280   51.4200 C   0  0  0  0  0  0  0  0  0  0  0  0
  174.5600   23.7510   52.0720 C   0  0  0  0  0  0  0  0  0  0  0  0
  174.4030   23.5350   53.4140 O   0  0  0  0  0  0  0  0  0  0  0  0
  175.6820   23.3270   51.3560 C   0  0  0  0  0  0  0  0  0  0  0  0
  176.7840   22.6130   52.0030 C   0  0  0  0  0  0  0  0  0  0  0  0
  176.7720   22.3450   53.2030 O   0  0  0  0  0  0  0  0  0  0  0  0
  177.9330   22.2140   51.1570 C   0  0  0  0  0  0  0  0  0  0  0  0
  178.9620   21.5290   51.7730 O   0  0  0  0  0  0  0  0  0  0  0  0
  178.8070   21.1980   47.9110 C   0  0  0  0  0  0  0  0  0  0  0  0
  179.8480   20.8380   47.0330 C   0  0  0  0  0  0  0  0  0  0  0  0
  179.5790   19.8050   45.9620 C   0  0  0  0  0  0  0  0  0  0  0  0
  179.3420   20.3470   44.7330 F   0  0  0  0  0  0  0  0  0  0  0  0
  178.4940   19.0270   46.2260 F   0  0  0  0  0  0  0  0  0  0  0  0
  183.1323   20.8782   46.8641 H   0  0  0  0  0  0  0  0  0  0  0  0
  181.9848   20.2803   45.6181 H   0  0  0  0  0  0  0  0  0  0  0  0
  182.4930   22.0032   45.6181 H   0  0  0  0  0  0  0  0  0  0  0  0
  182.2648   22.9169   48.2812 H   0  0  0  0  0  0  0  0  0  0  0  0
  180.4108   23.5163   49.8214 H   0  0  0  0  0  0  0  0  0  0  0  0
  174.8208   24.4573   48.2558 H   0  0  0  0  0  0  0  0  0  0  0  0
  172.8161   25.2154   49.5334 H   0  0  0  0  0  0  0  0  0  0  0  0
  172.6493   24.7629   51.9829 H   0  0  0  0  0  0  0  0  0  0  0  0
  173.6710   23.9070   53.8650 H   0  0  0  0  0  0  0  0  0  0  0  0
  179.2630   20.7150   51.4180 H   0  0  0  0  0  0  0  0  0  0  0  0
  177.8279   20.7067   47.8109 H   0  0  0  0  0  0  0  0  0  0  0  0
  180.5048   19.2110   45.9606 H   0  0  0  0  0  0  0  0  0  0  0  0
  1  2  1  0
  2  3  2  0
  3  4  1  0
  4  5  2  0
  5  6  1  0
  6  7  1  0
  7  8  1  0
  8  9  2  0
  9 10  1  0
 10 11  2  0
 11 12  1  0
 12 13  1  0
 12 14  2  0
 14 15  1  0
 15 16  2  0
 15 17  1  0
 17 18  1  0
  5 19  1  0
 19 20  2  0
 20 21  1  0
 21 22  1  0
 21 23  1  0
 20  2  1  0
 17  6  2  0
 14  8  1  0
  1 24  1  0
  1 25  1  0
  1 26  1  0
  3 27  1  0
  4 28  1  0
  9 29  1  0
 10 30  1  0
 11 31  1  0
 13 32  1  0
 18 33  1  0
 19 34  1  0
 21 35  1  0
M  END
>  <meeko>  (5) 
{"is_sidechain": [false], "free_energy": -7.51, "intermolecular_energy": -8.691, "internal_energy": -0.451}

$$$$
cand_014_out
     RDKit          3D

 35 37  0  0  0  0  0  0  0  0999 V2000
  171.6110   24.8870   49.5340 C   0  0  0  0  0  0  0  0  0  0  0  0
  173.0340   24.4000   49.5830 C   0  0  0  0  0  0  0  0  0  0  0  0
  173.3030   23.0550   49.2900 C   0  0  0  0  0  0  0  0  0  0  0  0
  174.6080   22.5590   49.3340 C   0  0  0  0  0  0  0  0  0  0  0  0
  175.6790   23.3920   49.6700 C   0  0  0  0  0  0  0  0  0  0  0  0
  177.0500   22.8430   49.7280 C   0  0  0  0  0  0  0  0  0  0  0  0
  177.5020   22.3820   48.4980 O   0  0  0  0  0  0  0  0  0  0  0  0
  178.7610   21.8440   48.4150 C   0  0  0  0  0  0  0  0  0  0  0  0
  179.1700   21.3770   47.1660 C   0  0  0  0  0  0  0  0  0  0  0  0
  180.4400   20.8200   47.0120 C   0  0  0  0  0  0  0  0  0  0  0  0
  181.3030   20.7290   48.1060 C   0  0  0  0  0  0  0  0  0  0  0  0
  180.8930   21.1960   49.3520 C   0  0  0  0  0  0  0  0  0  0  0  0
  181.7870   21.0780   50.3800 O   0  0  0  0  0  0  0  0  0  0  0  0
  179.6210   21.7530   49.5060 C   0  0  0  0  0  0  0  0  0  0  0  0
  179.1510   22.2550   50.7980 C   0  0  0  0  0  0  0  0  0  0  0  0
  179.8540   22.2200   51.8060 O   0  0  0  0  0  0  0  0  0  0  0  0
  177.7830   22.8190   50.8570 C   0  0  0  0  0  0  0  0  0  0  0  0
  177.3520   23.3030   52.0780 O   0  0  0  0  0  0  0  0  0  0  0  0
  175.4080   24.7320   49.9850 C   0  0  0  0  0  0  0  0  0  0  0  0
  174.0980   25.2490   49.9530 C   0  0  0  0  0  0  0  0  0  0  0  0
  173.8790   26.7090   50.2780 C   0  0  0  0  0  0  0  0  0  0  0  0
  174.9440   27.5010   49.9640 F   0  0  0  0  0  0  0  0  0  0  0  0
  173.6410   26.9360   51.6000 F   0  0  0  0  0  0  0  0  0  0  0  0
  171.2323   25.0166   50.5586 H   0  0  0  0  0  0  0  0  0  0  0  0
  171.5711   25.8500   49.0038 H   0  0  0  0  0  0  0  0  0  0  0  0
  170.9894   24.1504   49.0038 H   0  0  0  0  0  0  0  0  0  0  0  0
  172.4753   22.3819   49.0220 H   0  0  0  0  0  0  0  0  0  0  0  0
  174.7951   21.5003   49.1015 H   0  0  0  0  0  0  0  0  0  0  0  0
  178.4917   21.4478   46.3029 H   0  0  0  0  0  0  0  0  0  0  0  0
  180.7621   20.4518   46.0268 H   0  0  0  0  0  0  0  0  0  0  0  0
  182.3040   20.2896   47.9838 H   0  0  0  0  0  0  0  0  0  0  0  0
  181.6580   20.4260   51.0410 H   0  0  0  0  0  0  0  0  0  0  0  0
  176.4590   23.5630   52.1920 H   0  0  0  0  0  0  0  0  0  0  0  0
  176.2396   25.3958   50.2641 H   0  0  0  0  0  0  0  0  0  0  0  0
  173.0021   26.9641   49.6648 H   0  0  0  0  0  0  0  0  0  0  0  0
  1  2  1  0
  2  3  2  0
  3  4  1  0
  4  5  2  0
  5  6  1  0
  6  7  1  0
  7  8  1  0
  8  9  2  0
  9 10  1  0
 10 11  2  0
 11 12  1  0
 12 13  1  0
 12 14  2  0
 14 15  1  0
 15 16  2  0
 15 17  1  0
 17 18  1  0
  5 19  1  0
 19 20  2  0
 20 21  1  0
 21 22  1  0
 21 23  1  0
 20  2  1  0
 17  6  2  0
 14  8  1  0
  1 24  1  0
  1 25  1  0
  1 26  1  0
  3 27  1  0
  4 28  1  0
  9 29  1  0
 10 30  1  0
 11 31  1  0
 13 32  1  0
 18 33  1  0
 19 34  1  0
 21 35  1  0
M  END
>  <meeko>  (6) 
{"is_sidechain": [false], "free_energy": -7.359, "intermolecular_energy": -8.564, "internal_energy": -0.4}

$$$$
cand_014_out
     RDKit          3D

 35 37  0  0  0  0  0  0  0  0999 V2000
  180.8040   19.4590   45.1450 C   0  0  0  0  0  0  0  0  0  0  0  0
  179.9400   20.0620   46.2190 C   0  0  0  0  0  0  0  0  0  0  0  0
  178.6150   19.6200   46.3540 C   0  0  0  0  0  0  0  0  0  0  0  0
  177.7750   20.1610   47.3300 C   0  0  0  0  0  0  0  0  0  0  0  0
  178.2360   21.1550   48.2000 C   0  0  0  0  0  0  0  0  0  0  0  0
  177.3260   21.7260   49.2140 C   0  0  0  0  0  0  0  0  0  0  0  0
  176.0730   22.0420   48.7020 O   0  0  0  0  0  0  0  0  0  0  0  0
  175.1330   22.5850   49.5400 C   0  0  0  0  0  0  0  0  0  0  0  0
  173.8950   22.9040   48.9820 C   0  0  0  0  0  0  0  0  0  0  0  0
  172.8920   23.4560   49.7820 C   0  0  0  0  0  0  0  0  0  0  0  0
  173.1260   23.6890   51.1380 C   0  0  0  0  0  0  0  0  0  0  0  0
  174.3630   23.3700   51.6930 C   0  0  0  0  0  0  0  0  0  0  0  0
  174.5250   23.6230   53.0270 O   0  0  0  0  0  0  0  0  0  0  0  0
  175.3660   22.8180   50.8930 C   0  0  0  0  0  0  0  0  0  0  0  0
  176.6790   22.4680   51.4360 C   0  0  0  0  0  0  0  0  0  0  0  0
  176.9610   22.6340   52.6210 O   0  0  0  0  0  0  0  0  0  0  0  0
  177.6770   21.8960   50.5020 C   0  0  0  0  0  0  0  0  0  0  0  0
  178.9100   21.5560   51.0270 O   0  0  0  0  0  0  0  0  0  0  0  0
  179.5530   21.6120   48.0510 C   0  0  0  0  0  0  0  0  0  0  0  0
  180.4130   21.0850   47.0670 C   0  0  0  0  0  0  0  0  0  0  0  0
  181.8300   21.6050   46.9780 C   0  0  0  0  0  0  0  0  0  0  0  0
  182.7220   20.8770   47.7090 F   0  0  0  0  0  0  0  0  0  0  0  0
  181.9610   22.8850   47.4240 F   0  0  0  0  0  0  0  0  0  0  0  0
  181.6217   18.8883   45.6095 H   0  0  0  0  0  0  0  0  0  0  0  0
  180.1970   18.7874   44.5201 H   0  0  0  0  0  0  0  0  0  0  0  0
  181.2250   20.2604   44.5201 H   0  0  0  0  0  0  0  0  0  0  0  0
  178.2329   18.8372   45.6823 H   0  0  0  0  0  0  0  0  0  0  0  0
  176.7390   19.8014   47.4156 H   0  0  0  0  0  0  0  0  0  0  0  0
  173.7089   22.7211   47.9134 H   0  0  0  0  0  0  0  0  0  0  0  0
  171.9156   23.7076   49.3424 H   0  0  0  0  0  0  0  0  0  0  0  0
  172.3352   24.1236   51.7671 H   0  0  0  0  0  0  0  0  0  0  0  0
  174.5000   22.9170   53.6440 H   0  0  0  0  0  0  0  0  0  0  0  0
  179.6950   21.8630   50.6180 H   0  0  0  0  0  0  0  0  0  0  0  0
  179.9246   22.4025   48.7196 H   0  0  0  0  0  0  0  0  0  0  0  0
  182.0480   21.5324   45.9023 H   0  0  0  0  0  0  0  0  0  0  0  0
  1  2  1  0
  2  3  2  0
  3  4  1  0
  4  5  2  0
  5  6  1  0
  6  7  1  0
  7  8  1  0
  8  9  2  0
  9 10  1  0
 10 11  2  0
 11 12  1  0
 12 13  1  0
 12 14  2  0
 14 15  1  0
 15 16  2  0
 15 17  1  0
 17 18  1  0
  5 19  1  0
 19 20  2  0
 20 21  1  0
 21 22  1  0
 21 23  1  0
 20  2  1  0
 17  6  2  0
 14  8  1  0
  1 24  1  0
  1 25  1  0
  1 26  1  0
  3 27  1  0
  4 28  1  0
  9 29  1  0
 10 30  1  0
 11 31  1  0
 13 32  1  0
 18 33  1  0
 19 34  1  0
 21 35  1  0
M  END
>  <meeko>  (7) 
{"is_sidechain": [false], "free_energy": -7.327, "intermolecular_energy": -8.65, "internal_energy": -0.276}

$$$$
cand_014_out
     RDKit          3D

 35 37  0  0  0  0  0  0  0  0999 V2000
  178.5630   19.3630   46.1650 C   0  0  0  0  0  0  0  0  0  0  0  0
  178.0300   20.2430   47.2640 C   0  0  0  0  0  0  0  0  0  0  0  0
  178.9020   21.1380   47.9000 C   0  0  0  0  0  0  0  0  0  0  0  0
  178.4510   21.9650   48.9320 C   0  0  0  0  0  0  0  0  0  0  0  0
  177.1180   21.9210   49.3540 C   0  0  0  0  0  0  0  0  0  0  0  0
  176.6670   22.7920   50.4590 C   0  0  0  0  0  0  0  0  0  0  0  0
  176.1330   23.9960   50.0170 O   0  0  0  0  0  0  0  0  0  0  0  0
  175.6780   24.8980   50.9450 C   0  0  0  0  0  0  0  0  0  0  0  0
  175.1660   26.1020   50.4600 C   0  0  0  0  0  0  0  0  0  0  0  0
  174.6840   27.0630   51.3510 C   0  0  0  0  0  0  0  0  0  0  0  0
  174.7130   26.8210   52.7260 C   0  0  0  0  0  0  0  0  0  0  0  0
  175.2240   25.6190   53.2070 C   0  0  0  0  0  0  0  0  0  0  0  0
  175.2220   25.4460   54.5640 O   0  0  0  0  0  0  0  0  0  0  0  0
  175.7070   24.6580   52.3160 C   0  0  0  0  0  0  0  0  0  0  0  0
  176.2530   23.3820   52.7800 C   0  0  0  0  0  0  0  0  0  0  0  0
  176.3050   23.0900   53.9730 O   0  0  0  0  0  0  0  0  0  0  0  0
  176.7470   22.4340   51.7550 C   0  0  0  0  0  0  0  0  0  0  0  0
  177.2490   21.2260   52.2010 O   0  0  0  0  0  0  0  0  0  0  0  0
  176.2530   21.0100   48.7330 C   0  0  0  0  0  0  0  0  0  0  0  0
  176.6900   20.1630   47.6960 C   0  0  0  0  0  0  0  0  0  0  0  0
  175.6980   19.2220   47.0510 C   0  0  0  0  0  0  0  0  0  0  0  0
  174.4390   19.7390   46.9600 F   0  0  0  0  0  0  0  0  0  0  0  0
  175.5550   18.0470   47.7250 F   0  0  0  0  0  0  0  0  0  0  0  0
  179.0851   18.5011   46.6061 H   0  0  0  0  0  0  0  0  0  0  0  0
  177.7285   19.0072   45.5429 H   0  0  0  0  0  0  0  0  0  0  0  0
  179.2649   19.9378   45.5429 H   0  0  0  0  0  0  0  0  0  0  0  0
  179.9540   21.1897   47.5827 H   0  0  0  0  0  0  0  0  0  0  0  0
  179.1524   22.6589   49.4184 H   0  0  0  0  0  0  0  0  0  0  0  0
  175.1421   26.2939   49.3771 H   0  0  0  0  0  0  0  0  0  0  0  0
  174.2807   28.0125   50.9691 H   0  0  0  0  0  0  0  0  0  0  0  0
  174.3329   27.5785   53.4273 H   0  0  0  0  0  0  0  0  0  0  0  0
  175.0640   26.1780   55.1290 H   0  0  0  0  0  0  0  0  0  0  0  0
  177.0610   20.4370   51.7310 H   0  0  0  0  0  0  0  0  0  0  0  0
  175.2055   20.9550   49.0641 H   0  0  0  0  0  0  0  0  0  0  0  0
  176.1320   19.0600   46.0533 H   0  0  0  0  0  0  0  0  0  0  0  0
  1  2  1  0
  2  3  2  0
  3  4  1  0
  4  5  2  0
  5  6  1  0
  6  7  1  0
  7  8  1  0
  8  9  2  0
  9 10  1  0
 10 11  2  0
 11 12  1  0
 12 13  1  0
 12 14  2  0
 14 15  1  0
 15 16  2  0
 15 17  1  0
 17 18  1  0
  5 19  1  0
 19 20  2  0
 20 21  1  0
 21 22  1  0
 21 23  1  0
 20  2  1  0
 17  6  2  0
 14  8  1  0
  1 24  1  0
  1 25  1  0
  1 26  1  0
  3 27  1  0
  4 28  1  0
  9 29  1  0
 10 30  1  0
 11 31  1  0
 13 32  1  0
 18 33  1  0
 19 34  1  0
 21 35  1  0
M  END
>  <meeko>  (8) 
{"is_sidechain": [false], "free_energy": -7.315, "intermolecular_energy": -8.361, "internal_energy": -0.552}

$$$$
cand_014_out
     RDKit          3D

 35 37  0  0  0  0  0  0  0  0999 V2000
  172.6560   25.0240   52.1930 C   0  0  0  0  0  0  0  0  0  0  0  0
  173.5170   24.1750   51.2980 C   0  0  0  0  0  0  0  0  0  0  0  0
  174.7160   23.6520   51.8040 C   0  0  0  0  0  0  0  0  0  0  0  0
  175.5510   22.8690   51.0030 C   0  0  0  0  0  0  0  0  0  0  0  0
  175.2100   22.5860   49.6770 C   0  0  0  0  0  0  0  0  0  0  0  0
  176.1160   21.7700   48.8410 C   0  0  0  0  0  0  0  0  0  0  0  0
  177.3940   22.3070   48.7450 O   0  0  0  0  0  0  0  0  0  0  0  0
  178.3330   21.6470   47.9930 C   0  0  0  0  0  0  0  0  0  0  0  0
  179.5990   22.2290   47.9070 C   0  0  0  0  0  0  0  0  0  0  0  0
  180.6020   21.6080   47.1620 C   0  0  0  0  0  0  0  0  0  0  0  0
  180.3410   20.4050   46.5020 C   0  0  0  0  0  0  0  0  0  0  0  0
  179.0780   19.8270   46.5890 C   0  0  0  0  0  0  0  0  0  0  0  0
  178.8910   18.6490   45.9190 O   0  0  0  0  0  0  0  0  0  0  0  0
  178.0740   20.4490   47.3350 C   0  0  0  0  0  0  0  0  0  0  0  0
  176.7330   19.8740   47.4520 C   0  0  0  0  0  0  0  0  0  0  0  0
  176.4270   18.8150   46.9080 O   0  0  0  0  0  0  0  0  0  0  0  0
  175.7370   20.6170   48.2600 C   0  0  0  0  0  0  0  0  0  0  0  0
  174.4780   20.0600   48.3760 O   0  0  0  0  0  0  0  0  0  0  0  0
  174.0230   23.1280   49.1640 C   0  0  0  0  0  0  0  0  0  0  0  0
  173.1720   23.9260   49.9530 C   0  0  0  0  0  0  0  0  0  0  0  0
  171.8940   24.4570   49.3450 C   0  0  0  0  0  0  0  0  0  0  0  0
  171.5620   23.8560   48.1660 F   0  0  0  0  0  0  0  0  0  0  0  0
  171.9440   25.7890   49.0680 F   0  0  0  0  0  0  0  0  0  0  0  0
  172.8855   24.7977   53.2447 H   0  0  0  0  0  0  0  0  0  0  0  0
  172.8571   26.0871   51.9943 H   0  0  0  0  0  0  0  0  0  0  0  0
  171.5959   24.8080   51.9943 H   0  0  0  0  0  0  0  0  0  0  0  0
  175.0027   23.8611   52.8452 H   0  0  0  0  0  0  0  0  0  0  0  0
  176.4875   22.4706   51.4204 H   0  0  0  0  0  0  0  0  0  0  0  0
  179.8056   23.1765   48.4262 H   0  0  0  0  0  0  0  0  0  0  0  0
  181.5996   22.0664   47.0943 H   0  0  0  0  0  0  0  0  0  0  0  0
  181.1320   19.9155   45.9148 H   0  0  0  0  0  0  0  0  0  0  0  0
  178.7460   18.6540   44.9930 H   0  0  0  0  0  0  0  0  0  0  0  0
  173.7370   20.6070   48.5530 H   0  0  0  0  0  0  0  0  0  0  0  0
  173.7493   22.9247   48.1182 H   0  0  0  0  0  0  0  0  0  0  0  0
  171.1473   24.2389   50.1227 H   0  0  0  0  0  0  0  0  0  0  0  0
  1  2  1  0
  2  3  2  0
  3  4  1  0
  4  5  2  0
  5  6  1  0
  6  7  1  0
  7  8  1  0
  8  9  2  0
  9 10  1  0
 10 11  2  0
 11 12  1  0
 12 13  1  0
 12 14  2  0
 14 15  1  0
 15 16  2  0
 15 17  1  0
 17 18  1  0
  5 19  1  0
 19 20  2  0
 20 21  1  0
 21 22  1  0
 21 23  1  0
 20  2  1  0
 17  6  2  0
 14  8  1  0
  1 24  1  0
  1 25  1  0
  1 26  1  0
  3 27  1  0
  4 28  1  0
  9 29  1  0
 10 30  1  0
 11 31  1  0
 13 32  1  0
 18 33  1  0
 19 34  1  0
 21 35  1  0
M  END
>  <meeko>  (9) 
{"is_sidechain": [false], "free_energy": -7.225, "intermolecular_energy": -8.417, "internal_energy": -0.39}

$$$$
