cand_034_out
     RDKit          3D

 40 42  0  0  0  0  0  0  0  0999 V2000
  176.8310   22.1260   50.3970 C   0  0  0  0  0  0  0  0  0  0  0  0
  176.7460   22.2990   48.9430 N   0  0  0  0  0  0  0  0  0  0  0  0
  176.9950   23.6790   48.4990 C   0  0  0  0  0  0  0  0  0  0  0  0
  177.5150   21.3830   48.1930 C   0  0  0  0  0  0  0  0  0  0  0  0
  178.9170   21.4480   48.1440 C   0  0  0  0  0  0  0  0  0  0  0  0
  179.6590   20.5430   47.3750 C   0  0  0  0  0  0  0  0  0  0  0  0
  179.0240   19.5450   46.6330 C   0  0  0  0  0  0  0  0  0  0  0  0
  179.7820   18.5980   45.7870 C   0  0  0  0  0  0  0  0  0  0  0  0
  179.2540   17.3120   45.8100 O   0  0  0  0  0  0  0  0  0  0  0  0
  179.8650   16.3310   45.0720 C   0  0  0  0  0  0  0  0  0  0  0  0
  179.2950   15.0570   45.1180 C   0  0  0  0  0  0  0  0  0  0  0  0
  179.8680   14.0120   44.3900 C   0  0  0  0  0  0  0  0  0  0  0  0
  181.0090   14.2390   43.6180 C   0  0  0  0  0  0  0  0  0  0  0  0
  181.5760   15.5100   43.5750 C   0  0  0  0  0  0  0  0  0  0  0  0
  182.6930   15.6630   42.8000 O   0  0  0  0  0  0  0  0  0  0  0  0
  181.0020   16.5570   44.3030 C   0  0  0  0  0  0  0  0  0  0  0  0
  181.5650   17.9070   44.2870 C   0  0  0  0  0  0  0  0  0  0  0  0
  182.5710   18.1850   43.6380 O   0  0  0  0  0  0  0  0  0  0  0  0
  180.8800   18.9450   45.0900 C   0  0  0  0  0  0  0  0  0  0  0  0
  181.4310   20.2140   45.0800 O   0  0  0  0  0  0  0  0  0  0  0  0
  177.6240   19.4850   46.6670 C   0  0  0  0  0  0  0  0  0  0  0  0
  176.8660   20.3830   47.4450 C   0  0  0  0  0  0  0  0  0  0  0  0
  175.3630   20.2710   47.4420 C   0  0  0  0  0  0  0  0  0  0  0  0
  174.9260   19.0510   47.0040 F   0  0  0  0  0  0  0  0  0  0  0  0
  174.7740   21.1790   46.6100 F   0  0  0  0  0  0  0  0  0  0  0  0
  176.3989   23.0055   50.8968 H   0  0  0  0  0  0  0  0  0  0  0  0
  176.2728   21.2253   50.6923 H   0  0  0  0  0  0  0  0  0  0  0  0
  177.8850   22.0174   50.6923 H   0  0  0  0  0  0  0  0  0  0  0  0
  177.1127   24.3311   49.3770 H   0  0  0  0  0  0  0  0  0  0  0  0
  177.9131   23.7095   47.8940 H   0  0  0  0  0  0  0  0  0  0  0  0
  176.1454   24.0284   47.8940 H   0  0  0  0  0  0  0  0  0  0  0  0
  179.4420   22.2241   48.7203 H   0  0  0  0  0  0  0  0  0  0  0  0
  180.7562   20.6193   47.3552 H   0  0  0  0  0  0  0  0  0  0  0  0
  178.3965   14.8769   45.7264 H   0  0  0  0  0  0  0  0  0  0  0  0
  179.4195   13.0082   44.4249 H   0  0  0  0  0  0  0  0  0  0  0  0
  181.4592   13.4152   43.0447 H   0  0  0  0  0  0  0  0  0  0  0  0
  183.4950   15.9550   43.1860 H   0  0  0  0  0  0  0  0  0  0  0  0
  182.0960   20.4400   45.7000 H   0  0  0  0  0  0  0  0  0  0  0  0
  177.1047   18.7190   46.0724 H   0  0  0  0  0  0  0  0  0  0  0  0
  175.0842   20.4435   48.4920 H   0  0  0  0  0  0  0  0  0  0  0  0
  1  2  1  0
  2  3  1  0
  2  4  1  0
  4  5  2  0
  5  6  1  0
  6  7  2  0
  7  8  1  0
  8  9  1  0
  9 10  1  0
 10 11  2  0
 11 12  1  0
 12 13  2  0
 13 14  1  0
 14 15  1  0
 14 16  2  0
 16 17  1  0
 17 18  2  0
 17 19  1  0
 19 20  1  0
  7 21  1  0
 21 22  2  0
 22 23  1  0
 23 24  1  0
 23 25  1  0
 22  4  1  0
 19  8  2  0
 16 10  1  0
  1 26  1  0
  1 27  1  0
  1 28  1  0
  3 29  1  0
  3 30  1  0
  3 31  1  0
  5 32  1  0
  6 33  1  0
 11 34  1  0
 12 35  1  0
 13 36  1  0
 15 37  1  0
 20 38  1  0
 21 39  1  0
 23 40  1  0
M  END
>  <meeko>  (1) 
{"is_sidechain": [false], "free_energy": -7.62, "intermolecular_energy": -9.402, "internal_energy": -0.276}

$$$$
cand_034_out
     RDKit          3D

 40 42  0  0  0  0  0  0  0  0999 V2000
  171.9140   24.2750   53.1800 C   0  0  0  0  0  0  0  0  0  0  0  0
  172.5680   24.9450   52.0520 N   0  0  0  0  0  0  0  0  0  0  0  0
  173.2260   26.2080   52.4190 C   0  0  0  0  0  0  0  0  0  0  0  0
  173.4380   24.1250   51.3010 C   0  0  0  0  0  0  0  0  0  0  0  0
  174.6020   23.5670   51.8530 C   0  0  0  0  0  0  0  0  0  0  0  0
  175.4620   22.7740   51.0840 C   0  0  0  0  0  0  0  0  0  0  0  0
  175.1870   22.5150   49.7400 C   0  0  0  0  0  0  0  0  0  0  0  0
  176.0960   21.7090   48.8960 C   0  0  0  0  0  0  0  0  0  0  0  0
  177.3550   22.2830   48.7570 O   0  0  0  0  0  0  0  0  0  0  0  0
  178.2970   21.6410   47.9950 C   0  0  0  0  0  0  0  0  0  0  0  0
  179.5490   22.2490   47.8910 C   0  0  0  0  0  0  0  0  0  0  0  0
  180.5530   21.6490   47.1300 C   0  0  0  0  0  0  0  0  0  0  0  0
  180.3060   20.4420   46.4720 C   0  0  0  0  0  0  0  0  0  0  0  0
  179.0560   19.8380   46.5760 C   0  0  0  0  0  0  0  0  0  0  0  0
  178.8810   18.6580   45.9060 O   0  0  0  0  0  0  0  0  0  0  0  0
  178.0510   20.4390   47.3390 C   0  0  0  0  0  0  0  0  0  0  0  0
  176.7230   19.8400   47.4750 C   0  0  0  0  0  0  0  0  0  0  0  0
  176.4260   18.7830   46.9210 O   0  0  0  0  0  0  0  0  0  0  0  0
  175.7300   20.5540   48.3090 C   0  0  0  0  0  0  0  0  0  0  0  0
  174.4730   19.9860   48.4170 O   0  0  0  0  0  0  0  0  0  0  0  0
  174.0340   23.0820   49.1800 C   0  0  0  0  0  0  0  0  0  0  0  0
  173.1540   23.8730   49.9460 C   0  0  0  0  0  0  0  0  0  0  0  0
  171.9300   24.4570   49.2890 C   0  0  0  0  0  0  0  0  0  0  0  0
  171.7350   23.9840   48.0200 F   0  0  0  0  0  0  0  0  0  0  0  0
  172.0080   25.8130   49.1540 F   0  0  0  0  0  0  0  0  0  0  0  0
  172.3078   24.6785   54.1245 H   0  0  0  0  0  0  0  0  0  0  0  0
  170.8290   24.4492   53.1310 H   0  0  0  0  0  0  0  0  0  0  0  0
  172.1144   23.1945   53.1310 H   0  0  0  0  0  0  0  0  0  0  0  0
  173.2705   26.2934   53.5148 H   0  0  0  0  0  0  0  0  0  0  0  0
  174.2464   26.2227   52.0084 H   0  0  0  0  0  0  0  0  0  0  0  0
  172.6533   27.0526   52.0084 H   0  0  0  0  0  0  0  0  0  0  0  0
  174.8428   23.7564   52.9095 H   0  0  0  0  0  0  0  0  0  0  0  0
  176.3662   22.3495   51.5447 H   0  0  0  0  0  0  0  0  0  0  0  0
  179.7440   23.2000   48.4083 H   0  0  0  0  0  0  0  0  0  0  0  0
  181.5402   22.1272   47.0482 H   0  0  0  0  0  0  0  0  0  0  0  0
  181.0980   19.9694   45.8725 H   0  0  0  0  0  0  0  0  0  0  0  0
  178.0830   18.4970   45.4410 H   0  0  0  0  0  0  0  0  0  0  0  0
  174.3480   19.2280   48.9520 H   0  0  0  0  0  0  0  0  0  0  0  0
  173.8105   22.9055   48.1175 H   0  0  0  0  0  0  0  0  0  0  0  0
  171.1073   24.1625   49.9572 H   0  0  0  0  0  0  0  0  0  0  0  0
  1  2  1  0
  2  3  1  0
  2  4  1  0
  4  5  2  0
  5  6  1  0
  6  7  2  0
  7  8  1  0
  8  9  1  0
  9 10  1  0
 10 11  2  0
 11 12  1  0
 12 13  2  0
 13 14  1  0
 14 15  1  0
 14 16  2  0
 16 17  1  0
 17 18  2  0
 17 19  1  0
 19 20  1  0
  7 21  1  0
 21 22  2  0
 22 23  1  0
 23 24  1  0
 23 25  1  0
 22  4  1  0
 19  8  2  0
 16 10  1  0
  1 26  1  0
  1 27  1  0
  1 28  1  0
  3 29  1  0
  3 30  1  0
  3 31  1  0
  5 32  1  0
  6 33  1  0
 11 34  1  0
 12 35  1  0
 13 36  1  0
 15 37  1  0
 20 38  1  0
 21 39  1  0
 23 40  1  0
M  END
>  <meeko>  (2) 
{"is_sidechain": [false], "free_energy": -7.251, "intermolecular_energy": -8.723, "internal_energy": -0.5}

$$$$
cand_034_out
     RDKit          3D

 40 42  0  0  0  0  0  0  0  0999 V2000
  186.0020   23.0850   49.2160 C   0  0  0  0  0  0  0  0  0  0  0  0
  184.9950   23.5890   48.2780 N   0  0  0  0  0  0  0  0  0  0  0  0
  185.3340   23.3530   46.8670 C   0  0  0  0  0  0  0  0  0  0  0  0
  183.6720   23.1760   48.5510 C   0  0  0  0  0  0  0  0  0  0  0  0
  183.3650   21.8670   48.9520 C   0  0  0  0  0  0  0  0  0  0  0  0
  182.0450   21.4730   49.1970 C   0  0  0  0  0  0  0  0  0  0  0  0
  180.9890   22.3750   49.0500 C   0  0  0  0  0  0  0  0  0  0  0  0
  179.5820   21.9760   49.2700 C   0  0  0  0  0  0  0  0  0  0  0  0
  178.8980   21.7340   48.0840 O   0  0  0  0  0  0  0  0  0  0  0  0
  177.5800   21.3600   48.1440 C   0  0  0  0  0  0  0  0  0  0  0  0
  176.9350   21.1180   46.9300 C   0  0  0  0  0  0  0  0  0  0  0  0
  175.5930   20.7340   46.9180 C   0  0  0  0  0  0  0  0  0  0  0  0
  174.8950   20.5940   48.1190 C   0  0  0  0  0  0  0  0  0  0  0  0
  175.5400   20.8370   49.3300 C   0  0  0  0  0  0  0  0  0  0  0  0
  174.7980   20.6810   50.4680 O   0  0  0  0  0  0  0  0  0  0  0  0
  176.8840   21.2200   49.3400 C   0  0  0  0  0  0  0  0  0  0  0  0
  177.6000   21.4860   50.5880 C   0  0  0  0  0  0  0  0  0  0  0  0
  177.0530   21.3910   51.6850 O   0  0  0  0  0  0  0  0  0  0  0  0
  179.0230   21.8820   50.4910 C   0  0  0  0  0  0  0  0  0  0  0  0
  179.6850   22.1470   51.6760 O   0  0  0  0  0  0  0  0  0  0  0  0
  181.2890   23.6810   48.6360 C   0  0  0  0  0  0  0  0  0  0  0  0
  182.6150   24.0930   48.3960 C   0  0  0  0  0  0  0  0  0  0  0  0
  182.8760   25.5090   47.9520 C   0  0  0  0  0  0  0  0  0  0  0  0
  181.8770   26.3690   48.3180 F   0  0  0  0  0  0  0  0  0  0  0  0
  182.9620   25.6220   46.5950 F   0  0  0  0  0  0  0  0  0  0  0  0
  185.6604   23.2560   50.2475 H   0  0  0  0  0  0  0  0  0  0  0  0
  186.1487   22.0072   49.0522 H   0  0  0  0  0  0  0  0  0  0  0  0
  186.9527   23.6135   49.0522 H   0  0  0  0  0  0  0  0  0  0  0  0
  186.2354   22.7255   46.8065 H   0  0  0  0  0  0  0  0  0  0  0  0
  184.4970   22.8414   46.3694 H   0  0  0  0  0  0  0  0  0  0  0  0
  185.5233   24.3156   46.3694 H   0  0  0  0  0  0  0  0  0  0  0  0
  184.1778   21.1363   49.0762 H   0  0  0  0  0  0  0  0  0  0  0  0
  181.8363   20.4392   49.5095 H   0  0  0  0  0  0  0  0  0  0  0  0
  177.4839   21.2298   45.9833 H   0  0  0  0  0  0  0  0  0  0  0  0
  175.0850   20.5415   45.9615 H   0  0  0  0  0  0  0  0  0  0  0  0
  173.8372   20.2923   48.1093 H   0  0  0  0  0  0  0  0  0  0  0  0
  173.9190   20.3600   50.4150 H   0  0  0  0  0  0  0  0  0  0  0  0
  179.1960   22.2960   52.4620 H   0  0  0  0  0  0  0  0  0  0  0  0
  180.4694   24.4011   48.4953 H   0  0  0  0  0  0  0  0  0  0  0  0
  183.8268   25.7673   48.4411 H   0  0  0  0  0  0  0  0  0  0  0  0
  1  2  1  0
  2  3  1  0
  2  4  1  0
  4  5  2  0
  5  6  1  0
  6  7  2  0
  7  8  1  0
  8  9  1  0
  9 10  1  0
 10 11  2  0
 11 12  1  0
 12 13  2  0
 13 14  1  0
 14 15  1  0
 14 16  2  0
 16 17  1  0
 17 18  2  0
 17 19  1  0
 19 20  1  0
  7 21  1  0
 21 22  2  0
 22 23  1  0
 23 24  1  0
 23 25  1  0
 22  4  1  0
 19  8  2  0
 16 10  1  0
  1 26  1  0
  1 27  1  0
  1 28  1  0
  3 29  1  0
  3 30  1  0
  3 31  1  0
  5 32  1  0
  6 33  1  0
 11 34  1  0
 12 35  1  0
 13 36  1  0
 15 37  1  0
 20 38  1  0
 21 39  1  0
 23 40  1  0
M  END
>  <meeko>  (3) 
{"is_sidechain": [false], "free_energy": -7.25, "intermolecular_energy": -8.672, "internal_energy": -0.549}

$$$$
cand_034_out
     RDKit          3D

 40 42  0  0  0  0  0  0  0  0999 V2000
  171.8130   24.3720   49.0160 C   0  0  0  0  0  0  0  0  0  0  0  0
  172.7630   24.2310   50.1250 N   0  0  0  0  0  0  0  0  0  0  0  0
  172.2110   23.5160   51.2850 C   0  0  0  0  0  0  0  0  0  0  0  0
  174.0210   23.7030   49.7610 C   0  0  0  0  0  0  0  0  0  0  0  0
  174.1620   22.4230   49.2020 C   0  0  0  0  0  0  0  0  0  0  0  0
  175.4220   21.9100   48.8700 C   0  0  0  0  0  0  0  0  0  0  0  0
  176.5800   22.6610   49.0850 C   0  0  0  0  0  0  0  0  0  0  0  0
  177.9250   22.1300   48.7740 C   0  0  0  0  0  0  0  0  0  0  0  0
  178.0140   21.6050   47.4900 O   0  0  0  0  0  0  0  0  0  0  0  0
  179.2070   21.0740   47.0720 C   0  0  0  0  0  0  0  0  0  0  0  0
  179.2540   20.5670   45.7720 C   0  0  0  0  0  0  0  0  0  0  0  0
  180.4380   20.0110   45.2840 C   0  0  0  0  0  0  0  0  0  0  0  0
  181.5740   19.9600   46.0940 C   0  0  0  0  0  0  0  0  0  0  0  0
  181.5250   20.4660   47.3910 C   0  0  0  0  0  0  0  0  0  0  0  0
  182.6730   20.3840   48.1310 O   0  0  0  0  0  0  0  0  0  0  0  0
  180.3390   21.0230   47.8790 C   0  0  0  0  0  0  0  0  0  0  0  0
  180.2430   21.5650   49.2350 C   0  0  0  0  0  0  0  0  0  0  0  0
  181.1970   21.5510   50.0100 O   0  0  0  0  0  0  0  0  0  0  0  0
  178.9430   22.1370   49.6540 C   0  0  0  0  0  0  0  0  0  0  0  0
  178.8600   22.6310   50.9430 O   0  0  0  0  0  0  0  0  0  0  0  0
  176.4460   23.9340   49.6570 C   0  0  0  0  0  0  0  0  0  0  0  0
  175.1830   24.4650   49.9860 C   0  0  0  0  0  0  0  0  0  0  0  0
  175.1010   25.8390   50.6000 C   0  0  0  0  0  0  0  0  0  0  0  0
  174.6220   26.7790   49.7270 F   0  0  0  0  0  0  0  0  0  0  0  0
  176.3210   26.3090   50.9920 F   0  0  0  0  0  0  0  0  0  0  0  0
  170.8001   24.5223   49.4178 H   0  0  0  0  0  0  0  0  0  0  0  0
  172.0952   25.2381   48.3994 H   0  0  0  0  0  0  0  0  0  0  0  0
  171.8314   23.4613   48.3994 H   0  0  0  0  0  0  0  0  0  0  0  0
  172.5734   23.9854   52.2115 H   0  0  0  0  0  0  0  0  0  0  0  0
  171.1124   23.5627   51.2557 H   0  0  0  0  0  0  0  0  0  0  0  0
  172.5342   22.4650   51.2557 H   0  0  0  0  0  0  0  0  0  0  0  0
  173.2657   21.8114   49.0213 H   0  0  0  0  0  0  0  0  0  0  0  0
  175.5008   20.9030   48.4344 H   0  0  0  0  0  0  0  0  0  0  0  0
  178.3594   20.6056   45.1331 H   0  0  0  0  0  0  0  0  0  0  0  0
  180.4759   19.6124   44.2595 H   0  0  0  0  0  0  0  0  0  0  0  0
  182.5061   19.5210   45.7087 H   0  0  0  0  0  0  0  0  0  0  0  0
  182.6240   20.2710   49.0590 H   0  0  0  0  0  0  0  0  0  0  0  0
  179.5730   23.1190   51.3040 H   0  0  0  0  0  0  0  0  0  0  0  0
  177.3479   24.5322   49.8535 H   0  0  0  0  0  0  0  0  0  0  0  0
  174.4243   25.7043   51.4567 H   0  0  0  0  0  0  0  0  0  0  0  0
  1  2  1  0
  2  3  1  0
  2  4  1  0
  4  5  2  0
  5  6  1  0
  6  7  2  0
  7  8  1  0
  8  9  1  0
  9 10  1  0
 10 11  2  0
 11 12  1  0
 12 13  2  0
 13 14  1  0
 14 15  1  0
 14 16  2  0
 16 17  1  0
 17 18  2  0
 17 19  1  0
 19 20  1  0
  7 21  1  0
 21 22  2  0
 22 23  1  0
 23 24  1  0
 23 25  1  0
 22  4  1  0
 19  8  2  0
 16 10  1  0
  1 26  1  0
  1 27  1  0
  1 28  1  0
  3 29  1  0
  3 30  1  0
  3 31  1  0
  5 32  1  0
  6 33  1  0
 11 34  1  0
 12 35  1  0
 13 36  1  0
 15 37  1  0
 20 38  1  0
 21 39  1  0
 23 40  1  0
M  END
>  <meeko>  (4) 
{"is_sidechain": [false], "free_energy": -7.192, "intermolecular_energy": -8.782, "internal_energy": -0.368}

$$$$
cand_034_out
     RDKit          3D

 40 42  0  0  0  0  0  0  0  0999 V2000
  175.4950   28.1590   52.6320 C   0  0  0  0  0  0  0  0  0  0  0  0
  174.6850   26.9470   52.7930 N   0  0  0  0  0  0  0  0  0  0  0  0
  173.2380   27.2060   52.8310 C   0  0  0  0  0  0  0  0  0  0  0  0
  174.9860   25.9100   51.8840 C   0  0  0  0  0  0  0  0  0  0  0  0
  174.8970   26.0840   50.4940 C   0  0  0  0  0  0  0  0  0  0  0  0
  175.1790   25.0350   49.6110 C   0  0  0  0  0  0  0  0  0  0  0  0
  175.5600   23.7790   50.0890 C   0  0  0  0  0  0  0  0  0  0  0  0
  175.8310   22.6450   49.1790 C   0  0  0  0  0  0  0  0  0  0  0  0
  177.1510   22.6040   48.7460 O   0  0  0  0  0  0  0  0  0  0  0  0
  177.5380   21.6040   47.8910 C   0  0  0  0  0  0  0  0  0  0  0  0
  178.8750   21.5970   47.4900 C   0  0  0  0  0  0  0  0  0  0  0  0
  179.3350   20.6060   46.6200 C   0  0  0  0  0  0  0  0  0  0  0  0
  178.4600   19.6240   46.1520 C   0  0  0  0  0  0  0  0  0  0  0  0
  177.1260   19.6340   46.5530 C   0  0  0  0  0  0  0  0  0  0  0  0
  176.3230   18.6440   46.0560 O   0  0  0  0  0  0  0  0  0  0  0  0
  176.6660   20.6260   47.4240 C   0  0  0  0  0  0  0  0  0  0  0  0
  175.2730   20.6750   47.8700 C   0  0  0  0  0  0  0  0  0  0  0  0
  174.4410   19.8500   47.4970 O   0  0  0  0  0  0  0  0  0  0  0  0
  174.8880   21.7630   48.7970 C   0  0  0  0  0  0  0  0  0  0  0  0
  173.5650   21.8090   49.1990 O   0  0  0  0  0  0  0  0  0  0  0  0
  175.6360   23.5960   51.4770 C   0  0  0  0  0  0  0  0  0  0  0  0
  175.3650   24.6460   52.3760 C   0  0  0  0  0  0  0  0  0  0  0  0
  175.4630   24.3900   53.8570 C   0  0  0  0  0  0  0  0  0  0  0  0
  176.3000   23.3500   54.1590 F   0  0  0  0  0  0  0  0  0  0  0  0
  174.2610   24.0480   54.4080 F   0  0  0  0  0  0  0  0  0  0  0  0
  175.7608   28.5567   53.6226 H   0  0  0  0  0  0  0  0  0  0  0  0
  176.4126   27.9156   52.0763 H   0  0  0  0  0  0  0  0  0  0  0  0
  174.9191   28.9137   52.0763 H   0  0  0  0  0  0  0  0  0  0  0  0
  172.9036   27.2659   53.8772 H   0  0  0  0  0  0  0  0  0  0  0  0
  173.0222   28.1570   52.3221 H   0  0  0  0  0  0  0  0  0  0  0  0
  172.7058   26.3888   52.3221 H   0  0  0  0  0  0  0  0  0  0  0  0
  174.6000   27.0634   50.0908 H   0  0  0  0  0  0  0  0  0  0  0  0
  175.0995   25.2020   48.5267 H   0  0  0  0  0  0  0  0  0  0  0  0
  179.5649   22.3704   47.8585 H   0  0  0  0  0  0  0  0  0  0  0  0
  180.3883   20.5992   46.3031 H   0  0  0  0  0  0  0  0  0  0  0  0
  178.8235   18.8434   45.4675 H   0  0  0  0  0  0  0  0  0  0  0  0
  176.6990   17.8350   45.7710 H   0  0  0  0  0  0  0  0  0  0  0  0
  172.9930   21.0940   49.0040 H   0  0  0  0  0  0  0  0  0  0  0  0
  175.9140   22.6084   51.8736 H   0  0  0  0  0  0  0  0  0  0  0  0
  175.8402   25.3401   54.2632 H   0  0  0  0  0  0  0  0  0  0  0  0
  1  2  1  0
  2  3  1  0
  2  4  1  0
  4  5  2  0
  5  6  1  0
  6  7  2  0
  7  8  1  0
  8  9  1  0
  9 10  1  0
 10 11  2  0
 11 12  1  0
 12 13  2  0
 13 14  1  0
 14 15  1  0
 14 16  2  0
 16 17  1  0
 17 18  2  0
 17 19  1  0
 19 20  1  0
  7 21  1  0
 21 22  2  0
 22 23  1  0
 23 24  1  0
 23 25  1  0
 22  4  1  0
 19  8  2  0
 16 10  1  0
  1 26  1  0
  1 27  1  0
  1 28  1  0
  3 29  1  0
  3 30  1  0
  3 31  1  0
  5 32  1  0
  6 33  1  0
 11 34  1  0
 12 35  1  0
 13 36  1  0
 15 37  1  0
 20 38  1  0
 21 39  1  0
 23 40  1  0
M  END
>  <meeko>  (5) 
{"is_sidechain": [false], "free_energy": -7.135, "intermolecular_energy": -8.398, "internal_energy": -0.682}

$$$$
cand_034_out
     RDKit          3D

 40 42  0  0  0  0  0  0  0  0999 V2000
  170.8700   26.7390   51.8070 C   0  0  0  0  0  0  0  0  0  0  0  0
  171.1420   25.3340   52.1280 N   0  0  0  0  0  0  0  0  0  0  0  0
  169.9300   24.5070   52.2230 C   0  0  0  0  0  0  0  0  0  0  0  0
  172.1080   24.7160   51.3040 C   0  0  0  0  0  0  0  0  0  0  0  0
  171.9650   24.6410   49.9100 C   0  0  0  0  0  0  0  0  0  0  0  0
  172.9250   24.0040   49.1140 C   0  0  0  0  0  0  0  0  0  0  0  0
  174.0580   23.4220   49.6870 C   0  0  0  0  0  0  0  0  0  0  0  0
  175.0700   22.7150   48.8740 C   0  0  0  0  0  0  0  0  0  0  0  0
  174.6700   21.4340   48.5090 O   0  0  0  0  0  0  0  0  0  0  0  0
  175.5180   20.6640   47.7550 C   0  0  0  0  0  0  0  0  0  0  0  0
  175.0710   19.3890   47.4040 C   0  0  0  0  0  0  0  0  0  0  0  0
  175.8860   18.5520   46.6380 C   0  0  0  0  0  0  0  0  0  0  0  0
  177.1450   18.9890   46.2240 C   0  0  0  0  0  0  0  0  0  0  0  0
  177.5890   20.2610   46.5760 C   0  0  0  0  0  0  0  0  0  0  0  0
  178.8330   20.6260   46.1380 O   0  0  0  0  0  0  0  0  0  0  0  0
  176.7730   21.0990   47.3430 C   0  0  0  0  0  0  0  0  0  0  0  0
  177.2000   22.4420   47.7360 C   0  0  0  0  0  0  0  0  0  0  0  0
  178.2970   22.8960   47.4160 O   0  0  0  0  0  0  0  0  0  0  0  0
  176.2600   23.2510   48.5440 C   0  0  0  0  0  0  0  0  0  0  0  0
  176.6800   24.5130   48.9240 O   0  0  0  0  0  0  0  0  0  0  0  0
  174.1980   23.4810   51.0810 C   0  0  0  0  0  0  0  0  0  0  0  0
  173.2450   24.1290   51.8920 C   0  0  0  0  0  0  0  0  0  0  0  0
  173.4490   24.1600   53.3840 C   0  0  0  0  0  0  0  0  0  0  0  0
  174.6580   23.6440   53.7630 F   0  0  0  0  0  0  0  0  0  0  0  0
  172.5210   23.4150   54.0530 F   0  0  0  0  0  0  0  0  0  0  0  0
  170.7589   27.3131   52.7387 H   0  0  0  0  0  0  0  0  0  0  0  0
  171.7053   27.1495   51.2208 H   0  0  0  0  0  0  0  0  0  0  0  0
  169.9418   26.8081   51.2208 H   0  0  0  0  0  0  0  0  0  0  0  0
  169.6831   24.3385   53.2816 H   0  0  0  0  0  0  0  0  0  0  0  0
  169.0938   25.0238   51.7292 H   0  0  0  0  0  0  0  0  0  0  0  0
  170.1063   23.5400   51.7292 H   0  0  0  0  0  0  0  0  0  0  0  0
  171.0818   25.0913   49.4334 H   0  0  0  0  0  0  0  0  0  0  0  0
  172.7850   23.9615   48.0238 H   0  0  0  0  0  0  0  0  0  0  0  0
  174.0787   19.0440   47.7300 H   0  0  0  0  0  0  0  0  0  0  0  0
  175.5349   17.5471   46.3608 H   0  0  0  0  0  0  0  0  0  0  0  0
  177.7858   18.3295   45.6204 H   0  0  0  0  0  0  0  0  0  0  0  0
  179.2010   20.2170   45.3800 H   0  0  0  0  0  0  0  0  0  0  0  0
  176.4530   25.2570   48.4030 H   0  0  0  0  0  0  0  0  0  0  0  0
  175.0729   23.0100   51.5529 H   0  0  0  0  0  0  0  0  0  0  0  0
  173.3714   25.2277   53.6369 H   0  0  0  0  0  0  0  0  0  0  0  0
  1  2  1  0
  2  3  1  0
  2  4  1  0
  4  5  2  0
  5  6  1  0
  6  7  2  0
  7  8  1  0
  8  9  1  0
  9 10  1  0
 10 11  2  0
 11 12  1  0
 12 13  2  0
 13 14  1  0
 14 15  1  0
 14 16  2  0
 16 17  1  0
 17 18  2  0
 17 19  1  0
 19 20  1  0
  7 21  1  0
 21 22  2  0
 22 23  1  0
 23 24  1  0
 23 25  1  0
 22  4  1  0
 19  8  2  0
 16 10  1  0
  1 26  1  0
  1 27  1  0
  1 28  1  0
  3 29  1  0
  3 30  1  0
  3 31  1  0
  5 32  1  0
  6 33  1  0
 11 34  1  0
 12 35  1  0
 13 36  1  0
 15 37  1  0
 20 38  1  0
 21 39  1  0
 23 40  1  0
M  END
>  <meeko>  (6) 
{"is_sidechain": [false], "free_energy": -7.133, "intermolecular_energy": -8.474, "internal_energy": -0.603}

$$$$
cand_034_out
     RDKit          3D

 40 42  0  0  0  0  0  0  0  0999 V2000
  171.6100   25.3180   53.7940 C   0  0  0  0  0  0  0  0  0  0  0  0
  172.4600   26.0550   52.8540 N   0  0  0  0  0  0  0  0  0  0  0  0
  173.3320   27.0460   53.5020 C   0  0  0  0  0  0  0  0  0  0  0  0
  173.1980   25.2440   51.9640 C   0  0  0  0  0  0  0  0  0  0  0  0
  174.1590   24.3240   52.4110 C   0  0  0  0  0  0  0  0  0  0  0  0
  174.8940   23.5460   51.5090 C   0  0  0  0  0  0  0  0  0  0  0  0
  174.6920   23.6620   50.1320 C   0  0  0  0  0  0  0  0  0  0  0  0
  175.4790   22.8770   49.1570 C   0  0  0  0  0  0  0  0  0  0  0  0
  174.9130   21.6370   48.8800 O   0  0  0  0  0  0  0  0  0  0  0  0
  175.5440   20.8030   47.9940 C   0  0  0  0  0  0  0  0  0  0  0  0
  174.9360   19.5730   47.7390 C   0  0  0  0  0  0  0  0  0  0  0  0
  175.5260   18.6750   46.8470 C   0  0  0  0  0  0  0  0  0  0  0  0
  176.7240   19.0060   46.2110 C   0  0  0  0  0  0  0  0  0  0  0  0
  177.3300   20.2340   46.4670 C   0  0  0  0  0  0  0  0  0  0  0  0
  178.5020   20.4950   45.8110 O   0  0  0  0  0  0  0  0  0  0  0  0
  176.7380   21.1330   47.3600 C   0  0  0  0  0  0  0  0  0  0  0  0
  177.3410   22.4320   47.6590 C   0  0  0  0  0  0  0  0  0  0  0  0
  178.3970   22.7930   47.1450 O   0  0  0  0  0  0  0  0  0  0  0  0
  176.6320   23.3120   48.6150 C   0  0  0  0  0  0  0  0  0  0  0  0
  177.2190   24.5310   48.9030 O   0  0  0  0  0  0  0  0  0  0  0  0
  173.7440   24.5910   49.6790 C   0  0  0  0  0  0  0  0  0  0  0  0
  172.9890   25.3720   50.5770 C   0  0  0  0  0  0  0  0  0  0  0  0
  171.9850   26.3540   50.0330 C   0  0  0  0  0  0  0  0  0  0  0  0
  171.4620   25.9620   48.8300 F   0  0  0  0  0  0  0  0  0  0  0  0
  172.5310   27.5820   49.7980 F   0  0  0  0  0  0  0  0  0  0  0  0
  171.8998   25.5693   54.8249 H   0  0  0  0  0  0  0  0  0  0  0  0
  170.5578   25.5945   53.6312 H   0  0  0  0  0  0  0  0  0  0  0  0
  171.7346   24.2373   53.6312 H   0  0  0  0  0  0  0  0  0  0  0  0
  173.2475   26.9500   54.5945 H   0  0  0  0  0  0  0  0  0  0  0  0
  174.3747   26.8713   53.1981 H   0  0  0  0  0  0  0  0  0  0  0  0
  173.0261   28.0580   53.1981 H   0  0  0  0  0  0  0  0  0  0  0  0
  174.3379   24.2122   53.4906 H   0  0  0  0  0  0  0  0  0  0  0  0
  175.6407   22.8337   51.8898 H   0  0  0  0  0  0  0  0  0  0  0  0
  173.9926   19.3110   48.2403 H   0  0  0  0  0  0  0  0  0  0  0  0
  175.0464   17.7059   46.6453 H   0  0  0  0  0  0  0  0  0  0  0  0
  177.1887   18.2982   45.5088 H   0  0  0  0  0  0  0  0  0  0  0  0
  178.4920   20.6920   44.8950 H   0  0  0  0  0  0  0  0  0  0  0  0
  176.8060   25.1180   49.5050 H   0  0  0  0  0  0  0  0  0  0  0  0
  173.5860   24.7130   48.5973 H   0  0  0  0  0  0  0  0  0  0  0  0
  171.2106   26.3973   50.8130 H   0  0  0  0  0  0  0  0  0  0  0  0
  1  2  1  0
  2  3  1  0
  2  4  1  0
  4  5  2  0
  5  6  1  0
  6  7  2  0
  7  8  1  0
  8  9  1  0
  9 10  1  0
 10 11  2  0
 11 12  1  0
 12 13  2  0
 13 14  1  0
 14 15  1  0
 14 16  2  0
 16 17  1  0
 17 18  2  0
 17 19  1  0
 19 20  1  0
  7 21  1  0
 21 22  2  0
 22 23  1  0
 23 24  1  0
 23 25  1  0
 22  4  1  0
 19  8  2  0
 16 10  1  0
  1 26  1  0
  1 27  1  0
  1 28  1  0
  3 29  1  0
  3 30  1  0
  3 31  1  0
  5 32  1  0
  6 33  1  0
 11 34  1  0
 12 35  1  0
 13 36  1  0
 15 37  1  0
 20 38  1  0
 21 39  1  0
 23 40  1  0
M  END
>  <meeko>  (7) 
{"is_sidechain": [false], "free_energy": -7.112, "intermolecular_energy": -8.373, "internal_energy": -0.677}

$$$$
cand_034_out
     RDKit          3D

 40 42  0  0  0  0  0  0  0  0999 V2000
  174.7410   26.8830   54.1110 C   0  0  0  0  0  0  0  0  0  0  0  0
  175.3440   27.1540   52.8030 N   0  0  0  0  0  0  0  0  0  0  0  0
  176.5920   27.9290   52.8790 C   0  0  0  0  0  0  0  0  0  0  0  0
  175.5090   26.0170   51.9810 C   0  0  0  0  0  0  0  0  0  0  0  0
  176.3790   24.9690   52.3200 C   0  0  0  0  0  0  0  0  0  0  0  0
  176.5440   23.8610   51.4790 C   0  0  0  0  0  0  0  0  0  0  0  0
  175.8440   23.7670   50.2740 C   0  0  0  0  0  0  0  0  0  0  0  0
  176.0250   22.6240   49.3530 C   0  0  0  0  0  0  0  0  0  0  0  0
  177.3280   22.5100   48.8830 O   0  0  0  0  0  0  0  0  0  0  0  0
  177.6340   21.4940   48.0140 C   0  0  0  0  0  0  0  0  0  0  0  0
  178.9560   21.4130   47.5760 C   0  0  0  0  0  0  0  0  0  0  0  0
  179.3350   20.4020   46.6900 C   0  0  0  0  0  0  0  0  0  0  0  0
  178.3930   19.4750   46.2410 C   0  0  0  0  0  0  0  0  0  0  0  0
  177.0730   19.5590   46.6790 C   0  0  0  0  0  0  0  0  0  0  0  0
  176.2010   18.6190   46.2010 O   0  0  0  0  0  0  0  0  0  0  0  0
  176.6950   20.5710   47.5670 C   0  0  0  0  0  0  0  0  0  0  0  0
  175.3200   20.6960   48.0520 C   0  0  0  0  0  0  0  0  0  0  0  0
  174.4320   19.9230   47.6980 O   0  0  0  0  0  0  0  0  0  0  0  0
  175.0230   21.8000   48.9930 C   0  0  0  0  0  0  0  0  0  0  0  0
  173.7170   21.9190   49.4320 O   0  0  0  0  0  0  0  0  0  0  0  0
  174.9850   24.8180   49.9240 C   0  0  0  0  0  0  0  0  0  0  0  0
  174.8030   25.9330   50.7670 C   0  0  0  0  0  0  0  0  0  0  0  0
  173.8670   27.0330   50.3370 C   0  0  0  0  0  0  0  0  0  0  0  0
  172.8420   26.5780   49.5530 F   0  0  0  0  0  0  0  0  0  0  0  0
  174.4920   27.9860   49.5860 F   0  0  0  0  0  0  0  0  0  0  0  0
  175.4344   27.1946   54.9061 H   0  0  0  0  0  0  0  0  0  0  0  0
  173.7998   27.4447   54.2043 H   0  0  0  0  0  0  0  0  0  0  0  0
  174.5362   25.8063   54.2043 H   0  0  0  0  0  0  0  0  0  0  0  0
  176.8575   28.0939   53.9337 H   0  0  0  0  0  0  0  0  0  0  0  0
  177.3996   27.3733   52.3801 H   0  0  0  0  0  0  0  0  0  0  0  0
  176.4520   28.8993   52.3801 H   0  0  0  0  0  0  0  0  0  0  0  0
  176.9418   25.0187   53.2638 H   0  0  0  0  0  0  0  0  0  0  0  0
  177.2333   23.0551   51.7712 H   0  0  0  0  0  0  0  0  0  0  0  0
  179.6987   22.1442   47.9278 H   0  0  0  0  0  0  0  0  0  0  0  0
  180.3776   20.3362   46.3455 H   0  0  0  0  0  0  0  0  0  0  0  0
  178.6922   18.6796   45.5426 H   0  0  0  0  0  0  0  0  0  0  0  0
  175.2780   18.7590   46.2700 H   0  0  0  0  0  0  0  0  0  0  0  0
  173.4680   21.5620   50.2620 H   0  0  0  0  0  0  0  0  0  0  0  0
  174.4404   24.7716   48.9694 H   0  0  0  0  0  0  0  0  0  0  0  0
  173.4934   27.4455   51.2858 H   0  0  0  0  0  0  0  0  0  0  0  0
  1  2  1  0
  2  3  1  0
  2  4  1  0
  4  5  2  0
  5  6  1  0
  6  7  2  0
  7  8  1  0
  8  9  1  0
  9 10  1  0
 10 11  2  0
 11 12  1  0
 12 13  2  0
 13 14  1  0
 14 15  1  0
 14 16  2  0
 16 17  1  0
 17 18  2  0
 17 19  1  0
 19 20  1  0
  7 21  1  0
 21 22  2  0
 22 23  1  0
 23 24  1  0
 23 25  1  0
 22  4  1  0
 19  8  2  0
 16 10  1  0
  1 26  1  0
  1 27  1  0
  1 28  1  0
  3 29  1  0
  3 30  1  0
  3 31  1  0
  5 32  1  0
  6 33  1  0
 11 34  1  0
 12 35  1  0
 13 36  1  0
 15 37  1  0
 20 38  1  0
 21 39  1  0
 23 40  1  0
M  END
>  <meeko>  (8) 
{"is_sidechain": [false], "free_energy": -7.002, "intermolecular_energy": -8.397, "internal_energy": -0.518}

$$$$
cand_034_out
     RDKit          3D

 40 42  0  0  0  0  0  0  0  0999 V2000
  172.1640   26.1210   51.5640 C   0  0  0  0  0  0  0  0  0  0  0  0
  172.6110   24.8400   52.1190 N   0  0  0  0  0  0  0  0  0  0  0  0
  171.5150   24.0070   52.6350 C   0  0  0  0  0  0  0  0  0  0  0  0
  173.4550   24.0910   51.2700 C   0  0  0  0  0  0  0  0  0  0  0  0
  173.0380   23.6450   50.0050 C   0  0  0  0  0  0  0  0  0  0  0  0
  173.8830   22.8840   49.1890 C   0  0  0  0  0  0  0  0  0  0  0  0
  175.1710   22.5460   49.6090 C   0  0  0  0  0  0  0  0  0  0  0  0
  176.0720   21.7160   48.7810 C   0  0  0  0  0  0  0  0  0  0  0  0
  177.3270   22.2870   48.6080 O   0  0  0  0  0  0  0  0  0  0  0  0
  178.2610   21.6240   47.8550 C   0  0  0  0  0  0  0  0  0  0  0  0
  179.5100   22.2300   47.7170 C   0  0  0  0  0  0  0  0  0  0  0  0
  180.5070   21.6080   46.9620 C   0  0  0  0  0  0  0  0  0  0  0  0
  180.2540   20.3820   46.3450 C   0  0  0  0  0  0  0  0  0  0  0  0
  179.0070   19.7790   46.4830 C   0  0  0  0  0  0  0  0  0  0  0  0
  178.8260   18.5780   45.8520 O   0  0  0  0  0  0  0  0  0  0  0  0
  178.0090   20.4020   47.2400 C   0  0  0  0  0  0  0  0  0  0  0  0
  176.6850   19.8040   47.4100 C   0  0  0  0  0  0  0  0  0  0  0  0
  176.3840   18.7300   46.8930 O   0  0  0  0  0  0  0  0  0  0  0  0
  175.7010   20.5420   48.2340 C   0  0  0  0  0  0  0  0  0  0  0  0
  174.4470   19.9760   48.3750 O   0  0  0  0  0  0  0  0  0  0  0  0
  175.5870   22.9760   50.8770 C   0  0  0  0  0  0  0  0  0  0  0  0
  174.7500   23.7510   51.7050 C   0  0  0  0  0  0  0  0  0  0  0  0
  175.2500   24.1840   53.0580 C   0  0  0  0  0  0  0  0  0  0  0  0
  176.6100   24.0830   53.1750 F   0  0  0  0  0  0  0  0  0  0  0  0
  174.7500   23.4170   54.0690 F   0  0  0  0  0  0  0  0  0  0  0  0
  171.9228   26.8122   52.3851 H   0  0  0  0  0  0  0  0  0  0  0  0
  172.9649   26.5520   50.9452 H   0  0  0  0  0  0  0  0  0  0  0  0
  171.2689   25.9602   50.9452 H   0  0  0  0  0  0  0  0  0  0  0  0
  171.5315   24.0195   53.7348 H   0  0  0  0  0  0  0  0  0  0  0  0
  170.5533   24.4042   52.2781 H   0  0  0  0  0  0  0  0  0  0  0  0
  171.6402   22.9741   52.2781 H   0  0  0  0  0  0  0  0  0  0  0  0
  172.0285   23.8985   49.6490 H   0  0  0  0  0  0  0  0  0  0  0  0
  173.5277   22.5477   48.2038 H   0  0  0  0  0  0  0  0  0  0  0  0
  179.7094   23.1968   48.2023 H   0  0  0  0  0  0  0  0  0  0  0  0
  181.4923   22.0848   46.8536 H   0  0  0  0  0  0  0  0  0  0  0  0
  181.0393   19.8926   45.7502 H   0  0  0  0  0  0  0  0  0  0  0  0
  178.2340   17.9450   46.2100 H   0  0  0  0  0  0  0  0  0  0  0  0
  173.9770   20.0760   49.1790 H   0  0  0  0  0  0  0  0  0  0  0  0
  176.5907   22.7020   51.2342 H   0  0  0  0  0  0  0  0  0  0  0  0
  174.9162   25.2290   53.1391 H   0  0  0  0  0  0  0  0  0  0  0  0
  1  2  1  0
  2  3  1  0
  2  4  1  0
  4  5  2  0
  5  6  1  0
  6  7  2  0
  7  8  1  0
  8  9  1  0
  9 10  1  0
 10 11  2  0
 11 12  1  0
 12 13  2  0
 13 14  1  0
 14 15  1  0
 14 16  2  0
 16 17  1  0
 17 18  2  0
 17 19  1  0
 19 20  1  0
  7 21  1  0
 21 22  2  0
 22 23  1  0
 23 24  1  0
 23 25  1  0
 22  4  1  0
 19  8  2  0
 16 10  1  0
  1 26  1  0
  1 27  1  0
  1 28  1  0
  3 29  1  0
  3 30  1  0
  3 31  1  0
  5 32  1  0
  6 33  1  0
 11 34  1  0
 12 35  1  0
 13 36  1  0
 15 37  1  0
 20 38  1  0
 21 39  1  0
 23 40  1  0
M  END
>  <meeko>  (9) 
{"is_sidechain": [false], "free_energy": -6.977, "intermolecular_energy": -8.448, "internal_energy": -0.437}

$$$$
