9IV_from_7Q8V
     RDKit          3D

 24 27  0  0  0  0  0  0  0  0999 V2000
   71.8820   39.5830   -1.4440 N   0  0  0  0  0  0  0  0  0  0  0  0
   66.7570   44.6920   -7.5380 C   0  0  0  0  0  0  0  0  0  0  0  0
   72.2530   36.4570    1.1230 N   0  0  0  0  0  0  0  0  0  0  0  0
   68.8030   44.0650   -6.4440 C   0  0  0  0  0  0  0  0  0  0  0  0
   68.2110   44.2980   -5.2060 C   0  0  0  0  0  0  0  0  0  0  0  0
   68.9770   43.1860   -3.1800 C   0  0  0  0  0  0  0  0  0  0  0  0
   66.0850   44.8230   -3.6080 Cl  0  0  0  0  0  0  0  0  0  0  0  0
   66.8750   44.6870   -5.1480 C   0  0  0  0  0  0  0  0  0  0  0  0
   68.0660   44.2570   -7.6040 C   0  0  0  0  0  0  0  0  0  0  0  0
   66.1520   44.9050   -6.3110 C   0  0  0  0  0  0  0  0  0  0  0  0
   68.9540   44.3020   -4.0320 O   0  0  0  0  0  0  0  0  0  0  0  0
   68.2250   42.0420   -3.4170 C   0  0  0  0  0  0  0  0  0  0  0  0
   68.4000   40.9270   -2.6150 C   0  0  0  0  0  0  0  0  0  0  0  0
   69.3190   40.9530   -1.5640 C   0  0  0  0  0  0  0  0  0  0  0  0
   70.0250   42.1210   -1.3050 C   0  0  0  0  0  0  0  0  0  0  0  0
   69.8600   43.2310   -2.1130 C   0  0  0  0  0  0  0  0  0  0  0  0
   69.6370   39.7970   -0.8240 N   0  0  0  0  0  0  0  0  0  0  0  0
   70.8470   39.1790   -0.6780 C   0  0  0  0  0  0  0  0  0  0  0  0
   71.0010   38.1120    0.2610 C   0  0  0  0  0  0  0  0  0  0  0  0
   70.1620   37.2860    1.0660 C   0  0  0  0  0  0  0  0  0  0  0  0
   70.9550   36.3020    1.5710 C   0  0  0  0  0  0  0  0  0  0  0  0
   72.2870   37.5420    0.2950 C   0  0  0  0  0  0  0  0  0  0  0  0
   73.3330   37.9270   -0.4470 N   0  0  0  0  0  0  0  0  0  0  0  0
   73.0450   38.9360   -1.2790 C   0  0  0  0  0  0  0  0  0  0  0  0
  5  4  2  0
  8  7  1  0
  8  5  1  0
  9  4  1  0
  9  2  2  0
 10  2  1  0
 10  8  2  0
 11  6  1  0
 11  5  1  0
 12  6  2  0
 13 12  1  0
 14 13  2  0
 15 14  1  0
 16 15  2  0
 16  6  1  0
 17 14  1  0
 18 17  1  0
 18  1  2  0
 19 18  1  0
 20 19  1  0
 21 20  2  0
 21  3  1  0
 22 19  2  0
 22  3  1  0
 23 22  1  0
 24 23  2  0
 24  1  1  0
M  END
$$$$
