cand_003_out
     RDKit          3D

 35 37  0  0  0  0  0  0  0  0999 V2000
   21.4500  -26.1390   42.2330 C   0  0  0  0  0  0  0  0  0  0  0  0
   22.0800  -27.4430   41.8220 C   0  0  0  0  0  0  0  0  0  0  0  0
   21.4990  -28.1830   40.7740 C   0  0  0  0  0  0  0  0  0  0  0  0
   22.0490  -29.3990   40.3400 C   0  0  0  0  0  0  0  0  0  0  0  0
   21.3930  -30.1570   39.2540 C   0  0  0  0  0  0  0  0  0  0  0  0
   20.6130  -31.2080   39.7230 O   0  0  0  0  0  0  0  0  0  0  0  0
   19.9470  -31.9940   38.8180 C   0  0  0  0  0  0  0  0  0  0  0  0
   19.1870  -33.0460   39.3300 C   0  0  0  0  0  0  0  0  0  0  0  0
   18.4820  -33.8840   38.4630 C   0  0  0  0  0  0  0  0  0  0  0  0
   18.5350  -33.6690   37.0840 C   0  0  0  0  0  0  0  0  0  0  0  0
   19.2930  -32.6170   36.5750 C   0  0  0  0  0  0  0  0  0  0  0  0
   19.3010  -32.4630   35.2160 O   0  0  0  0  0  0  0  0  0  0  0  0
   20.0000  -31.7810   37.4440 C   0  0  0  0  0  0  0  0  0  0  0  0
   20.8080  -30.6650   36.9500 C   0  0  0  0  0  0  0  0  0  0  0  0
   20.9000  -30.4070   35.7510 O   0  0  0  0  0  0  0  0  0  0  0  0
   21.5250  -29.8420   37.9520 C   0  0  0  0  0  0  0  0  0  0  0  0
   22.2750  -28.7820   37.4770 O   0  0  0  0  0  0  0  0  0  0  0  0
   23.1930  -29.8800   40.9860 C   0  0  0  0  0  0  0  0  0  0  0  0
   23.7820  -29.1560   42.0250 C   0  0  0  0  0  0  0  0  0  0  0  0
   23.2420  -27.9330   42.4550 C   0  0  0  0  0  0  0  0  0  0  0  0
   23.9100  -27.1770   43.5840 C   0  0  0  0  0  0  0  0  0  0  0  0
   24.9120  -27.8850   44.1750 F   0  0  0  0  0  0  0  0  0  0  0  0
   23.0560  -26.8380   44.5930 F   0  0  0  0  0  0  0  0  0  0  0  0
   24.4700  -26.0040   43.1720 F   0  0  0  0  0  0  0  0  0  0  0  0
   21.4197  -26.0763   43.3308 H   0  0  0  0  0  0  0  0  0  0  0  0
   22.0437  -25.3032   41.8343 H   0  0  0  0  0  0  0  0  0  0  0  0
   20.4263  -26.0846   41.8343 H   0  0  0  0  0  0  0  0  0  0  0  0
   20.5923  -27.7986   40.2839 H   0  0  0  0  0  0  0  0  0  0  0  0
   19.1430  -33.2154   40.4160 H   0  0  0  0  0  0  0  0  0  0  0  0
   17.8842  -34.7144   38.8668 H   0  0  0  0  0  0  0  0  0  0  0  0
   17.9794  -34.3289   36.4014 H   0  0  0  0  0  0  0  0  0  0  0  0
   19.8920  -31.8550   34.8170 H   0  0  0  0  0  0  0  0  0  0  0  0
   21.8520  -27.9840   37.2290 H   0  0  0  0  0  0  0  0  0  0  0  0
   23.6330  -30.8381   40.6724 H   0  0  0  0  0  0  0  0  0  0  0  0
   24.6844  -29.5505   42.5149 H   0  0  0  0  0  0  0  0  0  0  0  0
  1  2  1  0
  2  3  2  0
  3  4  1  0
  4  5  1  0
  5  6  1  0
  6  7  1  0
  7  8  2  0
  8  9  1  0
  9 10  2  0
 10 11  1  0
 11 12  1  0
 11 13  2  0
 13 14  1  0
 14 15  2  0
 14 16  1  0
 16 17  1  0
  4 18  2  0
 18 19  1  0
 19 20  2  0
 20 21  1  0
 21 22  1  0
 21 23  1  0
 21 24  1  0
 20  2  1  0
 16  5  2  0
 13  7  1  0
  1 25  1  0
  1 26  1  0
  1 27  1  0
  3 28  1  0
  8 29  1  0
  9 30  1  0
 10 31  1  0
 12 32  1  0
 17 33  1  0
 18 34  1  0
 19 35  1  0
M  END
>  <meeko>  (1) 
{"is_sidechain": [false], "free_energy": -9.885, "intermolecular_energy": -11.618, "internal_energy": -0.374}

$$$$
cand_003_out
     RDKit          3D

 35 37  0  0  0  0  0  0  0  0999 V2000
   19.7060  -26.7740   41.3430 C   0  0  0  0  0  0  0  0  0  0  0  0
   20.6610  -27.8400   40.8770 C   0  0  0  0  0  0  0  0  0  0  0  0
   20.2170  -28.7920   39.9390 C   0  0  0  0  0  0  0  0  0  0  0  0
   21.0660  -29.8010   39.4590 C   0  0  0  0  0  0  0  0  0  0  0  0
   20.5530  -30.7970   38.4940 C   0  0  0  0  0  0  0  0  0  0  0  0
   20.0830  -31.9520   39.1070 O   0  0  0  0  0  0  0  0  0  0  0  0
   19.5770  -32.9590   38.3250 C   0  0  0  0  0  0  0  0  0  0  0  0
   19.1300  -34.1070   38.9800 C   0  0  0  0  0  0  0  0  0  0  0  0
   18.6020  -35.1690   38.2440 C   0  0  0  0  0  0  0  0  0  0  0  0
   18.5200  -35.0840   36.8520 C   0  0  0  0  0  0  0  0  0  0  0  0
   18.9660  -33.9360   36.2010 C   0  0  0  0  0  0  0  0  0  0  0  0
   18.8550  -33.9180   34.8370 O   0  0  0  0  0  0  0  0  0  0  0  0
   19.4960  -32.8750   36.9390 C   0  0  0  0  0  0  0  0  0  0  0  0
   19.9760  -31.6520   36.2930 C   0  0  0  0  0  0  0  0  0  0  0  0
   19.9300  -31.4980   35.0740 O   0  0  0  0  0  0  0  0  0  0  0  0
   20.5260  -30.5880   37.1640 C   0  0  0  0  0  0  0  0  0  0  0  0
   20.9640  -29.4310   36.5460 O   0  0  0  0  0  0  0  0  0  0  0  0
   22.3760  -29.8580   39.9460 C   0  0  0  0  0  0  0  0  0  0  0  0
   22.8320  -28.9190   40.8750 C   0  0  0  0  0  0  0  0  0  0  0  0
   21.9890  -27.8990   41.3500 C   0  0  0  0  0  0  0  0  0  0  0  0
   22.5200  -26.9000   42.3560 C   0  0  0  0  0  0  0  0  0  0  0  0
   21.7800  -26.8560   43.4990 F   0  0  0  0  0  0  0  0  0  0  0  0
   22.5470  -25.6180   41.8880 F   0  0  0  0  0  0  0  0  0  0  0  0
   23.7970  -27.1730   42.7440 F   0  0  0  0  0  0  0  0  0  0  0  0
   19.6876  -26.7535   42.4427 H   0  0  0  0  0  0  0  0  0  0  0  0
   20.0352  -25.7954   40.9635 H   0  0  0  0  0  0  0  0  0  0  0  0
   18.6973  -26.9940   40.9635 H   0  0  0  0  0  0  0  0  0  0  0  0
   19.1804  -28.7435   39.5740 H   0  0  0  0  0  0  0  0  0  0  0  0
   19.1937  -34.1751   40.0760 H   0  0  0  0  0  0  0  0  0  0  0  0
   18.2500  -36.0740   38.7607 H   0  0  0  0  0  0  0  0  0  0  0  0
   18.1045  -35.9210   36.2717 H   0  0  0  0  0  0  0  0  0  0  0  0
   18.1070  -33.5250   34.4330 H   0  0  0  0  0  0  0  0  0  0  0  0
   21.2120  -28.6900   37.0620 H   0  0  0  0  0  0  0  0  0  0  0  0
   23.0539  -30.6497   39.5943 H   0  0  0  0  0  0  0  0  0  0  0  0
   23.8677  -28.9789   41.2407 H   0  0  0  0  0  0  0  0  0  0  0  0
  1  2  1  0
  2  3  2  0
  3  4  1  0
  4  5  1  0
  5  6  1  0
  6  7  1  0
  7  8  2  0
  8  9  1  0
  9 10  2  0
 10 11  1  0
 11 12  1  0
 11 13  2  0
 13 14  1  0
 14 15  2  0
 14 16  1  0
 16 17  1  0
  4 18  2  0
 18 19  1  0
 19 20  2  0
 20 21  1  0
 21 22  1  0
 21 23  1  0
 21 24  1  0
 20  2  1  0
 16  5  2  0
 13  7  1  0
  1 25  1  0
  1 26  1  0
  1 27  1  0
  3 28  1  0
  8 29  1  0
  9 30  1  0
 10 31  1  0
 12 32  1  0
 17 33  1  0
 18 34  1  0
 19 35  1  0
M  END
>  <meeko>  (2) 
{"is_sidechain": [false], "free_energy": -9.829, "intermolecular_energy": -11.514, "internal_energy": -0.414}

$$$$
cand_003_out
     RDKit          3D

 35 37  0  0  0  0  0  0  0  0999 V2000
   24.5670  -29.2430   43.0390 C   0  0  0  0  0  0  0  0  0  0  0  0
   23.4450  -28.6750   42.2110 C   0  0  0  0  0  0  0  0  0  0  0  0
   22.8510  -29.4790   41.2200 C   0  0  0  0  0  0  0  0  0  0  0  0
   21.7950  -29.0070   40.4260 C   0  0  0  0  0  0  0  0  0  0  0  0
   21.2170  -29.8740   39.3780 C   0  0  0  0  0  0  0  0  0  0  0  0
   20.4320  -30.8980   39.8950 O   0  0  0  0  0  0  0  0  0  0  0  0
   19.8340  -31.7770   39.0290 C   0  0  0  0  0  0  0  0  0  0  0  0
   19.0660  -32.7980   39.5920 C   0  0  0  0  0  0  0  0  0  0  0  0
   18.4290  -33.7270   38.7660 C   0  0  0  0  0  0  0  0  0  0  0  0
   18.5580  -33.6340   37.3790 C   0  0  0  0  0  0  0  0  0  0  0  0
   19.3240  -32.6140   36.8200 C   0  0  0  0  0  0  0  0  0  0  0  0
   19.4070  -32.5810   35.4550 O   0  0  0  0  0  0  0  0  0  0  0  0
   19.9630  -31.6860   37.6470 C   0  0  0  0  0  0  0  0  0  0  0  0
   20.7770  -30.6000   37.1000 C   0  0  0  0  0  0  0  0  0  0  0  0
   20.9320  -30.4470   35.8900 O   0  0  0  0  0  0  0  0  0  0  0  0
   21.4180  -29.6730   38.0620 C   0  0  0  0  0  0  0  0  0  0  0  0
   22.1730  -28.6420   37.5360 O   0  0  0  0  0  0  0  0  0  0  0  0
   21.3440  -27.6980   40.6280 C   0  0  0  0  0  0  0  0  0  0  0  0
   21.9210  -26.8880   41.6100 C   0  0  0  0  0  0  0  0  0  0  0  0
   22.9710  -27.3610   42.4150 C   0  0  0  0  0  0  0  0  0  0  0  0
   23.5700  -26.4550   43.4690 C   0  0  0  0  0  0  0  0  0  0  0  0
   24.8750  -26.1490   43.2250 F   0  0  0  0  0  0  0  0  0  0  0  0
   23.5480  -26.9890   44.7240 F   0  0  0  0  0  0  0  0  0  0  0  0
   22.9180  -25.2620   43.5690 F   0  0  0  0  0  0  0  0  0  0  0  0
   24.3314  -29.1237   44.1068 H   0  0  0  0  0  0  0  0  0  0  0  0
   24.6890  -30.3114   42.8075 H   0  0  0  0  0  0  0  0  0  0  0  0
   25.5003  -28.7088   42.8075 H   0  0  0  0  0  0  0  0  0  0  0  0
   23.2238  -30.5021   41.0643 H   0  0  0  0  0  0  0  0  0  0  0  0
   18.9627  -32.8707   40.6847 H   0  0  0  0  0  0  0  0  0  0  0  0
   17.8251  -34.5327   39.2088 H   0  0  0  0  0  0  0  0  0  0  0  0
   18.0555  -34.3652   36.7287 H   0  0  0  0  0  0  0  0  0  0  0  0
   19.3720  -31.7610   35.0030 H   0  0  0  0  0  0  0  0  0  0  0  0
   23.0460  -28.4960   37.8440 H   0  0  0  0  0  0  0  0  0  0  0  0
   20.5266  -27.3022   40.0073 H   0  0  0  0  0  0  0  0  0  0  0  0
   21.5471  -25.8637   41.7550 H   0  0  0  0  0  0  0  0  0  0  0  0
  1  2  1  0
  2  3  2  0
  3  4  1  0
  4  5  1  0
  5  6  1  0
  6  7  1  0
  7  8  2  0
  8  9  1  0
  9 10  2  0
 10 11  1  0
 11 12  1  0
 11 13  2  0
 13 14  1  0
 14 15  2  0
 14 16  1  0
 16 17  1  0
  4 18  2  0
 18 19  1  0
 19 20  2  0
 20 21  1  0
 21 22  1  0
 21 23  1  0
 21 24  1  0
 20  2  1  0
 16  5  2  0
 13  7  1  0
  1 25  1  0
  1 26  1  0
  1 27  1  0
  3 28  1  0
  8 29  1  0
  9 30  1  0
 10 31  1  0
 12 32  1  0
 17 33  1  0
 18 34  1  0
 19 35  1  0
M  END
>  <meeko>  (3) 
{"is_sidechain": [false], "free_energy": -9.668, "intermolecular_energy": -11.389, "internal_energy": -0.348}

$$$$
cand_003_out
     RDKit          3D

 35 37  0  0  0  0  0  0  0  0999 V2000
   18.7310  -33.2890   39.7420 C   0  0  0  0  0  0  0  0  0  0  0  0
   19.3830  -32.1860   38.9520 C   0  0  0  0  0  0  0  0  0  0  0  0
   19.8250  -31.0320   39.6260 C   0  0  0  0  0  0  0  0  0  0  0  0
   20.4510  -29.9770   38.9430 C   0  0  0  0  0  0  0  0  0  0  0  0
   20.8760  -28.7710   39.6850 C   0  0  0  0  0  0  0  0  0  0  0  0
   21.8280  -29.0430   40.6610 O   0  0  0  0  0  0  0  0  0  0  0  0
   22.3100  -28.0100   41.4230 C   0  0  0  0  0  0  0  0  0  0  0  0
   23.2530  -28.3300   42.4010 C   0  0  0  0  0  0  0  0  0  0  0  0
   23.7860  -27.3250   43.2110 C   0  0  0  0  0  0  0  0  0  0  0  0
   23.3760  -26.0000   43.0430 C   0  0  0  0  0  0  0  0  0  0  0  0
   22.4350  -25.6830   42.0660 C   0  0  0  0  0  0  0  0  0  0  0  0
   22.0800  -24.3670   41.9550 O   0  0  0  0  0  0  0  0  0  0  0  0
   21.9010  -26.6900   41.2570 C   0  0  0  0  0  0  0  0  0  0  0  0
   20.9110  -26.4000   40.2200 C   0  0  0  0  0  0  0  0  0  0  0  0
   20.5060  -25.2590   40.0060 O   0  0  0  0  0  0  0  0  0  0  0  0
   20.4020  -27.5390   39.4200 C   0  0  0  0  0  0  0  0  0  0  0  0
   19.4770  -27.2520   38.4340 O   0  0  0  0  0  0  0  0  0  0  0  0
   20.6170  -30.0850   37.5590 C   0  0  0  0  0  0  0  0  0  0  0  0
   20.1860  -31.2260   36.8760 C   0  0  0  0  0  0  0  0  0  0  0  0
   19.5700  -32.2890   37.5570 C   0  0  0  0  0  0  0  0  0  0  0  0
   19.1180  -33.5090   36.7830 C   0  0  0  0  0  0  0  0  0  0  0  0
   17.7700  -33.6990   36.8340 F   0  0  0  0  0  0  0  0  0  0  0  0
   19.6690  -34.6740   37.2310 F   0  0  0  0  0  0  0  0  0  0  0  0
   19.4380  -33.4400   35.4590 F   0  0  0  0  0  0  0  0  0  0  0  0
   18.8492  -33.0891   40.8172 H   0  0  0  0  0  0  0  0  0  0  0  0
   17.6605  -33.3349   39.4930 H   0  0  0  0  0  0  0  0  0  0  0  0
   19.2069  -34.2490   39.4930 H   0  0  0  0  0  0  0  0  0  0  0  0
   19.6765  -30.9549   40.7132 H   0  0  0  0  0  0  0  0  0  0  0  0
   23.5761  -29.3731   42.5336 H   0  0  0  0  0  0  0  0  0  0  0  0
   24.5292  -27.5768   43.9819 H   0  0  0  0  0  0  0  0  0  0  0  0
   23.7956  -25.2084   43.6812 H   0  0  0  0  0  0  0  0  0  0  0  0
   22.5480  -23.7130   42.4370 H   0  0  0  0  0  0  0  0  0  0  0  0
   18.8550  -26.5630   38.5600 H   0  0  0  0  0  0  0  0  0  0  0  0
   21.0916  -29.2638   37.0019 H   0  0  0  0  0  0  0  0  0  0  0  0
   20.3316  -31.2925   35.7877 H   0  0  0  0  0  0  0  0  0  0  0  0
  1  2  1  0
  2  3  2  0
  3  4  1  0
  4  5  1  0
  5  6  1  0
  6  7  1  0
  7  8  2  0
  8  9  1  0
  9 10  2  0
 10 11  1  0
 11 12  1  0
 11 13  2  0
 13 14  1  0
 14 15  2  0
 14 16  1  0
 16 17  1  0
  4 18  2  0
 18 19  1  0
 19 20  2  0
 20 21  1  0
 21 22  1  0
 21 23  1  0
 21 24  1  0
 20  2  1  0
 16  5  2  0
 13  7  1  0
  1 25  1  0
  1 26  1  0
  1 27  1  0
  3 28  1  0
  8 29  1  0
  9 30  1  0
 10 31  1  0
 12 32  1  0
 17 33  1  0
 18 34  1  0
 19 35  1  0
M  END
>  <meeko>  (4) 
{"is_sidechain": [false], "free_energy": -9.055, "intermolecular_energy": -10.764, "internal_energy": -0.253}

$$$$
cand_003_out
     RDKit          3D

 35 37  0  0  0  0  0  0  0  0999 V2000
   19.5020  -26.8400   41.0570 C   0  0  0  0  0  0  0  0  0  0  0  0
   20.4690  -27.9190   40.6510 C   0  0  0  0  0  0  0  0  0  0  0  0
   20.0550  -28.8960   39.7260 C   0  0  0  0  0  0  0  0  0  0  0  0
   20.9180  -29.9190   39.3020 C   0  0  0  0  0  0  0  0  0  0  0  0
   20.4350  -30.9410   38.3490 C   0  0  0  0  0  0  0  0  0  0  0  0
   20.7750  -30.6550   37.0320 O   0  0  0  0  0  0  0  0  0  0  0  0
   20.3880  -31.5240   36.0440 C   0  0  0  0  0  0  0  0  0  0  0  0
   20.7380  -31.1930   34.7350 C   0  0  0  0  0  0  0  0  0  0  0  0
   20.3760  -32.0350   33.6810 C   0  0  0  0  0  0  0  0  0  0  0  0
   19.6650  -33.2100   33.9370 C   0  0  0  0  0  0  0  0  0  0  0  0
   19.3180  -33.5400   35.2450 C   0  0  0  0  0  0  0  0  0  0  0  0
   18.6240  -34.7040   35.4250 O   0  0  0  0  0  0  0  0  0  0  0  0
   19.6790  -32.6950   36.2980 C   0  0  0  0  0  0  0  0  0  0  0  0
   19.3340  -33.0040   37.6860 C   0  0  0  0  0  0  0  0  0  0  0  0
   18.7170  -34.0220   37.9930 O   0  0  0  0  0  0  0  0  0  0  0  0
   19.7570  -32.0400   38.7290 C   0  0  0  0  0  0  0  0  0  0  0  0
   19.4380  -32.3480   40.0390 O   0  0  0  0  0  0  0  0  0  0  0  0
   22.2110  -29.9630   39.8340 C   0  0  0  0  0  0  0  0  0  0  0  0
   22.6370  -28.9990   40.7510 C   0  0  0  0  0  0  0  0  0  0  0  0
   21.7810  -27.9660   41.1700 C   0  0  0  0  0  0  0  0  0  0  0  0
   22.2800  -26.9390   42.1640 C   0  0  0  0  0  0  0  0  0  0  0  0
   21.4890  -26.8450   43.2690 F   0  0  0  0  0  0  0  0  0  0  0  0
   22.3490  -25.6760   41.6540 F   0  0  0  0  0  0  0  0  0  0  0  0
   23.5340  -27.2170   42.6220 F   0  0  0  0  0  0  0  0  0  0  0  0
   19.4531  -26.7855   42.1546 H   0  0  0  0  0  0  0  0  0  0  0  0
   19.8418  -25.8735   40.6566 H   0  0  0  0  0  0  0  0  0  0  0  0
   18.5041  -27.0723   40.6566 H   0  0  0  0  0  0  0  0  0  0  0  0
   19.0311  -28.8570   39.3259 H   0  0  0  0  0  0  0  0  0  0  0  0
   21.2992  -30.2688   34.5327 H   0  0  0  0  0  0  0  0  0  0  0  0
   20.6509  -31.7728   32.6487 H   0  0  0  0  0  0  0  0  0  0  0  0
   19.3797  -33.8733   33.1072 H   0  0  0  0  0  0  0  0  0  0  0  0
   17.7300  -34.6780   35.7060 H   0  0  0  0  0  0  0  0  0  0  0  0
   19.3020  -33.2400   40.2900 H   0  0  0  0  0  0  0  0  0  0  0  0
   22.8991  -30.7645   39.5273 H   0  0  0  0  0  0  0  0  0  0  0  0
   23.6601  -29.0493   41.1520 H   0  0  0  0  0  0  0  0  0  0  0  0
  1  2  1  0
  2  3  2  0
  3  4  1  0
  4  5  1  0
  5  6  1  0
  6  7  1  0
  7  8  2  0
  8  9  1  0
  9 10  2  0
 10 11  1  0
 11 12  1  0
 11 13  2  0
 13 14  1  0
 14 15  2  0
 14 16  1  0
 16 17  1  0
  4 18  2  0
 18 19  1  0
 19 20  2  0
 20 21  1  0
 21 22  1  0
 21 23  1  0
 21 24  1  0
 20  2  1  0
 16  5  2  0
 13  7  1  0
  1 25  1  0
  1 26  1  0
  1 27  1  0
  3 28  1  0
  8 29  1  0
  9 30  1  0
 10 31  1  0
 12 32  1  0
 17 33  1  0
 18 34  1  0
 19 35  1  0
M  END
>  <meeko>  (5) 
{"is_sidechain": [false], "free_energy": -9.019, "intermolecular_energy": -10.572, "internal_energy": -0.403}

$$$$
cand_003_out
     RDKit          3D

 35 37  0  0  0  0  0  0  0  0999 V2000
   24.1710  -29.6850   42.3450 C   0  0  0  0  0  0  0  0  0  0  0  0
   23.1160  -28.6810   41.9640 C   0  0  0  0  0  0  0  0  0  0  0  0
   22.5730  -28.7190   40.6650 C   0  0  0  0  0  0  0  0  0  0  0  0
   21.5790  -27.8160   40.2580 C   0  0  0  0  0  0  0  0  0  0  0  0
   21.0540  -27.8730   38.8770 C   0  0  0  0  0  0  0  0  0  0  0  0
   21.1330  -29.1450   38.3210 O   0  0  0  0  0  0  0  0  0  0  0  0
   20.6780  -29.3380   37.0410 C   0  0  0  0  0  0  0  0  0  0  0  0
   20.7890  -30.6260   36.5170 C   0  0  0  0  0  0  0  0  0  0  0  0
   20.3440  -30.8920   35.2200 C   0  0  0  0  0  0  0  0  0  0  0  0
   19.7870  -29.8700   34.4480 C   0  0  0  0  0  0  0  0  0  0  0  0
   19.6760  -28.5850   34.9740 C   0  0  0  0  0  0  0  0  0  0  0  0
   19.1210  -27.6320   34.1650 O   0  0  0  0  0  0  0  0  0  0  0  0
   20.1240  -28.3200   36.2720 C   0  0  0  0  0  0  0  0  0  0  0  0
   20.0270  -26.9840   36.8610 C   0  0  0  0  0  0  0  0  0  0  0  0
   19.5420  -26.0350   36.2490 O   0  0  0  0  0  0  0  0  0  0  0  0
   20.5360  -26.8060   38.2410 C   0  0  0  0  0  0  0  0  0  0  0  0
   20.4270  -25.5440   38.7950 O   0  0  0  0  0  0  0  0  0  0  0  0
   21.1400  -26.8520   41.1720 C   0  0  0  0  0  0  0  0  0  0  0  0
   21.6670  -26.8030   42.4650 C   0  0  0  0  0  0  0  0  0  0  0  0
   22.6540  -27.7120   42.8810 C   0  0  0  0  0  0  0  0  0  0  0  0
   23.2000  -27.6290   44.2900 C   0  0  0  0  0  0  0  0  0  0  0  0
   24.5490  -27.4370   44.3250 F   0  0  0  0  0  0  0  0  0  0  0  0
   22.9710  -28.7510   45.0310 F   0  0  0  0  0  0  0  0  0  0  0  0
   22.6570  -26.6030   45.0040 F   0  0  0  0  0  0  0  0  0  0  0  0
   24.2378  -29.7486   43.4411 H   0  0  0  0  0  0  0  0  0  0  0  0
   23.9039  -30.6706   41.9361 H   0  0  0  0  0  0  0  0  0  0  0  0
   25.1422  -29.3694   41.9361 H   0  0  0  0  0  0  0  0  0  0  0  0
   22.9367  -29.4743   39.9528 H   0  0  0  0  0  0  0  0  0  0  0  0
   21.2267  -31.4316   37.1248 H   0  0  0  0  0  0  0  0  0  0  0  0
   20.4323  -31.9074   34.8062 H   0  0  0  0  0  0  0  0  0  0  0  0
   19.4366  -30.0795   33.4265 H   0  0  0  0  0  0  0  0  0  0  0  0
   18.3510  -27.8300   33.6680 H   0  0  0  0  0  0  0  0  0  0  0  0
   20.7020  -25.3940   39.6780 H   0  0  0  0  0  0  0  0  0  0  0  0
   20.3719  -26.1250   40.8694 H   0  0  0  0  0  0  0  0  0  0  0  0
   21.3031  -26.0401   43.1689 H   0  0  0  0  0  0  0  0  0  0  0  0
  1  2  1  0
  2  3  2  0
  3  4  1  0
  4  5  1  0
  5  6  1  0
  6  7  1  0
  7  8  2  0
  8  9  1  0
  9 10  2  0
 10 11  1  0
 11 12  1  0
 11 13  2  0
 13 14  1  0
 14 15  2  0
 14 16  1  0
 16 17  1  0
  4 18  2  0
 18 19  1  0
 19 20  2  0
 20 21  1  0
 21 22  1  0
 21 23  1  0
 21 24  1  0
 20  2  1  0
 16  5  2  0
 13  7  1  0
  1 25  1  0
  1 26  1  0
  1 27  1  0
  3 28  1  0
  8 29  1  0
  9 30  1  0
 10 31  1  0
 12 32  1  0
 17 33  1  0
 18 34  1  0
 19 35  1  0
M  END
>  <meeko>  (6) 
{"is_sidechain": [false], "free_energy": -8.542, "intermolecular_energy": -10.534, "internal_energy": 0.12}

$$$$
cand_003_out
     RDKit          3D

 35 37  0  0  0  0  0  0  0  0999 V2000
   19.3950  -31.9820   38.4720 C   0  0  0  0  0  0  0  0  0  0  0  0
   20.3820  -30.8470   38.4040 C   0  0  0  0  0  0  0  0  0  0  0  0
   20.8160  -30.2450   39.6000 C   0  0  0  0  0  0  0  0  0  0  0  0
   21.7440  -29.1920   39.5980 C   0  0  0  0  0  0  0  0  0  0  0  0
   22.1530  -28.5700   40.8760 C   0  0  0  0  0  0  0  0  0  0  0  0
   21.3680  -27.4760   41.2210 O   0  0  0  0  0  0  0  0  0  0  0  0
   21.6410  -26.8060   42.3860 C   0  0  0  0  0  0  0  0  0  0  0  0
   20.8380  -25.7050   42.6870 C   0  0  0  0  0  0  0  0  0  0  0  0
   21.0610  -24.9790   43.8590 C   0  0  0  0  0  0  0  0  0  0  0  0
   22.0850  -25.3540   44.7300 C   0  0  0  0  0  0  0  0  0  0  0  0
   22.8850  -26.4540   44.4280 C   0  0  0  0  0  0  0  0  0  0  0  0
   23.8690  -26.7670   45.3250 O   0  0  0  0  0  0  0  0  0  0  0  0
   22.6620  -27.1790   43.2540 C   0  0  0  0  0  0  0  0  0  0  0  0
   23.4790  -28.3400   42.9000 C   0  0  0  0  0  0  0  0  0  0  0  0
   24.3950  -28.7370   43.6180 O   0  0  0  0  0  0  0  0  0  0  0  0
   23.1670  -29.0360   41.6300 C   0  0  0  0  0  0  0  0  0  0  0  0
   23.9350  -30.1400   41.3100 O   0  0  0  0  0  0  0  0  0  0  0  0
   22.2260  -28.7320   38.3690 C   0  0  0  0  0  0  0  0  0  0  0  0
   21.8070  -29.3210   37.1730 C   0  0  0  0  0  0  0  0  0  0  0  0
   20.8880  -30.3830   37.1710 C   0  0  0  0  0  0  0  0  0  0  0  0
   20.4590  -30.9970   35.8550 C   0  0  0  0  0  0  0  0  0  0  0  0
   19.4220  -30.3300   35.2730 F   0  0  0  0  0  0  0  0  0  0  0  0
   20.0440  -32.2910   35.9660 F   0  0  0  0  0  0  0  0  0  0  0  0
   21.4610  -31.0120   34.9310 F   0  0  0  0  0  0  0  0  0  0  0  0
   19.1854  -32.2231   39.5246 H   0  0  0  0  0  0  0  0  0  0  0  0
   18.4615  -31.6867   37.9705 H   0  0  0  0  0  0  0  0  0  0  0  0
   19.8170  -32.8654   37.9705 H   0  0  0  0  0  0  0  0  0  0  0  0
   20.4184  -30.6084   40.5591 H   0  0  0  0  0  0  0  0  0  0  0  0
   20.0300  -25.4092   42.0016 H   0  0  0  0  0  0  0  0  0  0  0  0
   20.4288  -24.1106   44.0959 H   0  0  0  0  0  0  0  0  0  0  0  0
   22.2601  -24.7822   45.6532 H   0  0  0  0  0  0  0  0  0  0  0  0
   24.7350  -26.9570   45.0230 H   0  0  0  0  0  0  0  0  0  0  0  0
   24.2230  -30.2700   40.4290 H   0  0  0  0  0  0  0  0  0  0  0  0
   22.9425  -27.8978   38.3431 H   0  0  0  0  0  0  0  0  0  0  0  0
   22.2034  -28.9467   36.2176 H   0  0  0  0  0  0  0  0  0  0  0  0
  1  2  1  0
  2  3  2  0
  3  4  1  0
  4  5  1  0
  5  6  1  0
  6  7  1  0
  7  8  2  0
  8  9  1  0
  9 10  2  0
 10 11  1  0
 11 12  1  0
 11 13  2  0
 13 14  1  0
 14 15  2  0
 14 16  1  0
 16 17  1  0
  4 18  2  0
 18 19  1  0
 19 20  2  0
 20 21  1  0
 21 22  1  0
 21 23  1  0
 21 24  1  0
 20  2  1  0
 16  5  2  0
 13  7  1  0
  1 25  1  0
  1 26  1  0
  1 27  1  0
  3 28  1  0
  8 29  1  0
  9 30  1  0
 10 31  1  0
 12 32  1  0
 17 33  1  0
 18 34  1  0
 19 35  1  0
M  END
>  <meeko>  (7) 
{"is_sidechain": [false], "free_energy": -8.517, "intermolecular_energy": -10.297, "internal_energy": -0.088}

$$$$
cand_003_out
     RDKit          3D

 35 37  0  0  0  0  0  0  0  0999 V2000
   24.6260  -30.4250   42.5330 C   0  0  0  0  0  0  0  0  0  0  0  0
   23.6820  -29.3430   42.0810 C   0  0  0  0  0  0  0  0  0  0  0  0
   23.0060  -29.4940   40.8550 C   0  0  0  0  0  0  0  0  0  0  0  0
   22.1050  -28.5250   40.3880 C   0  0  0  0  0  0  0  0  0  0  0  0
   21.4360  -28.7090   39.0830 C   0  0  0  0  0  0  0  0  0  0  0  0
   20.8150  -27.5530   38.6250 O   0  0  0  0  0  0  0  0  0  0  0  0
   20.1570  -27.5860   37.4220 C   0  0  0  0  0  0  0  0  0  0  0  0
   19.5350  -26.4080   37.0070 C   0  0  0  0  0  0  0  0  0  0  0  0
   18.8490  -26.3730   35.7910 C   0  0  0  0  0  0  0  0  0  0  0  0
   18.7850  -27.5150   34.9900 C   0  0  0  0  0  0  0  0  0  0  0  0
   19.4080  -28.6890   35.4060 C   0  0  0  0  0  0  0  0  0  0  0  0
   19.3070  -29.7700   34.5730 O   0  0  0  0  0  0  0  0  0  0  0  0
   20.0920  -28.7240   36.6240 C   0  0  0  0  0  0  0  0  0  0  0  0
   20.7590  -29.9380   37.0980 C   0  0  0  0  0  0  0  0  0  0  0  0
   20.7540  -30.9810   36.4470 O   0  0  0  0  0  0  0  0  0  0  0  0
   21.4520  -29.8720   38.4050 C   0  0  0  0  0  0  0  0  0  0  0  0
   22.0910  -31.0200   38.8380 O   0  0  0  0  0  0  0  0  0  0  0  0
   21.8960  -27.3800   41.1660 C   0  0  0  0  0  0  0  0  0  0  0  0
   22.5570  -27.2180   42.3860 C   0  0  0  0  0  0  0  0  0  0  0  0
   23.4520  -28.1910   42.8620 C   0  0  0  0  0  0  0  0  0  0  0  0
   24.1480  -27.9800   44.1900 C   0  0  0  0  0  0  0  0  0  0  0  0
   25.4470  -28.3880   44.1770 F   0  0  0  0  0  0  0  0  0  0  0  0
   23.5640  -28.6510   45.2240 F   0  0  0  0  0  0  0  0  0  0  0  0
   24.1680  -26.6710   44.5700 F   0  0  0  0  0  0  0  0  0  0  0  0
   24.6512  -30.4539   43.6323 H   0  0  0  0  0  0  0  0  0  0  0  0
   24.2815  -31.3963   42.1485 H   0  0  0  0  0  0  0  0  0  0  0  0
   25.6351  -30.2154   42.1485 H   0  0  0  0  0  0  0  0  0  0  0  0
   23.1887  -30.3934   40.2487 H   0  0  0  0  0  0  0  0  0  0  0  0
   19.5849  -25.5077   37.6370 H   0  0  0  0  0  0  0  0  0  0  0  0
   18.3584  -25.4445   35.4638 H   0  0  0  0  0  0  0  0  0  0  0  0
   18.2438  -27.4874   34.0327 H   0  0  0  0  0  0  0  0  0  0  0  0
   19.1350  -30.6200   34.9280 H   0  0  0  0  0  0  0  0  0  0  0  0
   22.3280  -31.1120   39.7400 H   0  0  0  0  0  0  0  0  0  0  0  0
   21.2047  -26.6005   40.8133 H   0  0  0  0  0  0  0  0  0  0  0  0
   22.3737  -26.3133   42.9842 H   0  0  0  0  0  0  0  0  0  0  0  0
  1  2  1  0
  2  3  2  0
  3  4  1  0
  4  5  1  0
  5  6  1  0
  6  7  1  0
  7  8  2  0
  8  9  1  0
  9 10  2  0
 10 11  1  0
 11 12  1  0
 11 13  2  0
 13 14  1  0
 14 15  2  0
 14 16  1  0
 16 17  1  0
  4 18  2  0
 18 19  1  0
 19 20  2  0
 20 21  1  0
 21 22  1  0
 21 23  1  0
 21 24  1  0
 20  2  1  0
 16  5  2  0
 13  7  1  0
  1 25  1  0
  1 26  1  0
  1 27  1  0
  3 28  1  0
  8 29  1  0
  9 30  1  0
 10 31  1  0
 12 32  1  0
 17 33  1  0
 18 34  1  0
 19 35  1  0
M  END
>  <meeko>  (8) 
{"is_sidechain": [false], "free_energy": -8.513, "intermolecular_energy": -10.817, "internal_energy": 0.437}

$$$$
cand_003_out
     RDKit          3D

 35 37  0  0  0  0  0  0  0  0999 V2000
   19.3860  -32.1650   38.1000 C   0  0  0  0  0  0  0  0  0  0  0  0
   20.3680  -31.0260   38.0390 C   0  0  0  0  0  0  0  0  0  0  0  0
   20.8830  -30.5010   39.2400 C   0  0  0  0  0  0  0  0  0  0  0  0
   21.8110  -29.4480   39.2430 C   0  0  0  0  0  0  0  0  0  0  0  0
   22.3060  -28.9090   40.5270 C   0  0  0  0  0  0  0  0  0  0  0  0
   23.2480  -29.7320   41.1330 O   0  0  0  0  0  0  0  0  0  0  0  0
   23.7900  -29.3490   42.3330 C   0  0  0  0  0  0  0  0  0  0  0  0
   24.7210  -30.2120   42.9130 C   0  0  0  0  0  0  0  0  0  0  0  0
   25.3130  -29.8800   44.1330 C   0  0  0  0  0  0  0  0  0  0  0  0
   24.9750  -28.6860   44.7740 C   0  0  0  0  0  0  0  0  0  0  0  0
   24.0470  -27.8260   44.1920 C   0  0  0  0  0  0  0  0  0  0  0  0
   23.7640  -26.6730   44.8720 O   0  0  0  0  0  0  0  0  0  0  0  0
   23.4540  -28.1590   42.9720 C   0  0  0  0  0  0  0  0  0  0  0  0
   22.4740  -27.2830   42.3270 C   0  0  0  0  0  0  0  0  0  0  0  0
   22.1310  -26.2120   42.8240 O   0  0  0  0  0  0  0  0  0  0  0  0
   21.8990  -27.7310   41.0380 C   0  0  0  0  0  0  0  0  0  0  0  0
   20.9840  -26.8910   40.4300 O   0  0  0  0  0  0  0  0  0  0  0  0
   22.2110  -28.9090   38.0160 C   0  0  0  0  0  0  0  0  0  0  0  0
   21.7110  -29.4210   36.8160 C   0  0  0  0  0  0  0  0  0  0  0  0
   20.7910  -30.4830   36.8070 C   0  0  0  0  0  0  0  0  0  0  0  0
   20.2730  -31.0110   35.4860 C   0  0  0  0  0  0  0  0  0  0  0  0
   19.6950  -32.2400   35.5980 F   0  0  0  0  0  0  0  0  0  0  0  0
   21.2430  -31.1480   34.5360 F   0  0  0  0  0  0  0  0  0  0  0  0
   19.3290  -30.2000   34.9290 F   0  0  0  0  0  0  0  0  0  0  0  0
   19.1742  -32.4106   39.1511 H   0  0  0  0  0  0  0  0  0  0  0  0
   18.4528  -31.8719   37.5967 H   0  0  0  0  0  0  0  0  0  0  0  0
   19.8133  -33.0449   37.5967 H   0  0  0  0  0  0  0  0  0  0  0  0
   20.5501  -30.9262   40.1983 H   0  0  0  0  0  0  0  0  0  0  0  0
   24.9880  -31.1528   42.4094 H   0  0  0  0  0  0  0  0  0  0  0  0
   26.0469  -30.5600   44.5902 H   0  0  0  0  0  0  0  0  0  0  0  0
   25.4406  -28.4256   45.7360 H   0  0  0  0  0  0  0  0  0  0  0  0
   24.1870  -26.4950   45.6890 H   0  0  0  0  0  0  0  0  0  0  0  0
   20.1960  -26.6550   40.8770 H   0  0  0  0  0  0  0  0  0  0  0  0
   22.9264  -28.0737   37.9955 H   0  0  0  0  0  0  0  0  0  0  0  0
   22.0432  -28.9853   35.8622 H   0  0  0  0  0  0  0  0  0  0  0  0
  1  2  1  0
  2  3  2  0
  3  4  1  0
  4  5  1  0
  5  6  1  0
  6  7  1  0
  7  8  2  0
  8  9  1  0
  9 10  2  0
 10 11  1  0
 11 12  1  0
 11 13  2  0
 13 14  1  0
 14 15  2  0
 14 16  1  0
 16 17  1  0
  4 18  2  0
 18 19  1  0
 19 20  2  0
 20 21  1  0
 21 22  1  0
 21 23  1  0
 21 24  1  0
 20  2  1  0
 16  5  2  0
 13  7  1  0
  1 25  1  0
  1 26  1  0
  1 27  1  0
  3 28  1  0
  8 29  1  0
  9 30  1  0
 10 31  1  0
 12 32  1  0
 17 33  1  0
 18 34  1  0
 19 35  1  0
M  END
>  <meeko>  (9) 
{"is_sidechain": [false], "free_energy": -8.491, "intermolecular_energy": -10.439, "internal_energy": 0.085}

$$$$
