cand_010_out
     RDKit          3D

 35 37  0  0  0  0  0  0  0  0999 V2000
   20.9490  -30.3910   35.9280 O   0  0  0  0  0  0  0  0  0  0  0  0
   20.8400  -30.6020   37.1350 C   0  0  0  0  0  0  0  0  0  0  0  0
   21.5620  -29.7560   38.1130 C   0  0  0  0  0  0  0  0  0  0  0  0
   22.3370  -28.7280   37.6070 O   0  0  0  0  0  0  0  0  0  0  0  0
   21.4120  -30.0190   39.4240 C   0  0  0  0  0  0  0  0  0  0  0  0
   22.0740  -29.2330   40.4880 C   0  0  0  0  0  0  0  0  0  0  0  0
   23.1560  -29.7430   41.2130 C   0  0  0  0  0  0  0  0  0  0  0  0
   23.7500  -28.9930   42.2320 C   0  0  0  0  0  0  0  0  0  0  0  0
   23.2730  -27.7160   42.5610 C   0  0  0  0  0  0  0  0  0  0  0  0
   23.9470  -26.9340   43.6640 C   0  0  0  0  0  0  0  0  0  0  0  0
   24.8420  -26.0130   43.2040 F   0  0  0  0  0  0  0  0  0  0  0  0
   22.1790  -27.1860   41.8400 C   0  0  0  0  0  0  0  0  0  0  0  0
   21.6220  -25.8160   42.1540 C   0  0  0  0  0  0  0  0  0  0  0  0
   22.5150  -24.8030   41.9800 F   0  0  0  0  0  0  0  0  0  0  0  0
   20.5490  -25.5050   41.3740 F   0  0  0  0  0  0  0  0  0  0  0  0
   21.1880  -25.7130   43.4400 F   0  0  0  0  0  0  0  0  0  0  0  0
   21.5900  -27.9590   40.8170 C   0  0  0  0  0  0  0  0  0  0  0  0
   20.6070  -31.0350   39.9250 O   0  0  0  0  0  0  0  0  0  0  0  0
   19.9330  -31.8410   39.0430 C   0  0  0  0  0  0  0  0  0  0  0  0
   19.1480  -32.8580   39.5870 C   0  0  0  0  0  0  0  0  0  0  0  0
   18.4340  -33.7140   38.7450 C   0  0  0  0  0  0  0  0  0  0  0  0
   18.5060  -33.5530   37.3600 C   0  0  0  0  0  0  0  0  0  0  0  0
   19.2910  -32.5380   36.8190 C   0  0  0  0  0  0  0  0  0  0  0  0
   19.3150  -32.4360   35.4550 O   0  0  0  0  0  0  0  0  0  0  0  0
   20.0050  -31.6820   37.6620 C   0  0  0  0  0  0  0  0  0  0  0  0
   22.9210  -28.2610   38.1720 H   0  0  0  0  0  0  0  0  0  0  0  0
   23.5437  -30.7454   40.9786 H   0  0  0  0  0  0  0  0  0  0  0  0
   24.6046  -29.4108   42.7843 H   0  0  0  0  0  0  0  0  0  0  0  0
   23.1728  -26.4094   44.2432 H   0  0  0  0  0  0  0  0  0  0  0  0
   24.5076  -27.6543   44.2779 H   0  0  0  0  0  0  0  0  0  0  0  0
   20.7303  -27.5522   40.2643 H   0  0  0  0  0  0  0  0  0  0  0  0
   19.0913  -32.9857   40.6781 H   0  0  0  0  0  0  0  0  0  0  0  0
   17.8145  -34.5156   39.1736 H   0  0  0  0  0  0  0  0  0  0  0  0
   17.9435  -34.2269   36.6971 H   0  0  0  0  0  0  0  0  0  0  0  0
   20.0380  -32.7860   34.9720 H   0  0  0  0  0  0  0  0  0  0  0  0
  1  2  2  0
  2  3  1  0
  3  4  1  0
  3  5  2  0
  5  6  1  0
  6  7  2  0
  7  8  1  0
  8  9  2  0
  9 10  1  0
 10 11  1  0
  9 12  1  0
 12 13  1  0
 13 14  1  0
 13 15  1  0
 13 16  1  0
 12 17  2  0
  5 18  1  0
 18 19  1  0
 19 20  2  0
 20 21  1  0
 21 22  2  0
 22 23  1  0
 23 24  1  0
 23 25  2  0
 25  2  1  0
 17  6  1  0
 25 19  1  0
  4 26  1  0
  7 27  1  0
  8 28  1  0
 10 29  1  0
 10 30  1  0
 17 31  1  0
 20 32  1  0
 21 33  1  0
 22 34  1  0
 24 35  1  0
M  END
>  <meeko>  (1) 
{"is_sidechain": [false], "free_energy": -9.403, "intermolecular_energy": -11.602, "internal_energy": -0.501}

$$$$
cand_010_out
     RDKit          3D

 35 37  0  0  0  0  0  0  0  0999 V2000
   19.9550  -31.5160   35.0500 O   0  0  0  0  0  0  0  0  0  0  0  0
   19.9900  -31.6670   36.2700 C   0  0  0  0  0  0  0  0  0  0  0  0
   20.5280  -30.5990   37.1430 C   0  0  0  0  0  0  0  0  0  0  0  0
   20.9660  -29.4400   36.5270 O   0  0  0  0  0  0  0  0  0  0  0  0
   20.5450  -30.8040   38.4730 C   0  0  0  0  0  0  0  0  0  0  0  0
   21.0490  -29.8050   39.4390 C   0  0  0  0  0  0  0  0  0  0  0  0
   22.3440  -29.8730   39.9610 C   0  0  0  0  0  0  0  0  0  0  0  0
   22.7910  -28.9330   40.8940 C   0  0  0  0  0  0  0  0  0  0  0  0
   21.9490  -27.9010   41.3380 C   0  0  0  0  0  0  0  0  0  0  0  0
   22.4720  -26.9000   42.3420 C   0  0  0  0  0  0  0  0  0  0  0  0
   22.1360  -27.2010   43.6300 F   0  0  0  0  0  0  0  0  0  0  0  0
   20.6360  -27.8180   40.8240 C   0  0  0  0  0  0  0  0  0  0  0  0
   19.6860  -26.7300   41.2690 C   0  0  0  0  0  0  0  0  0  0  0  0
   20.1830  -25.4700   41.1250 F   0  0  0  0  0  0  0  0  0  0  0  0
   18.5160  -26.7500   40.5730 F   0  0  0  0  0  0  0  0  0  0  0  0
   19.3400  -26.8460   42.5800 F   0  0  0  0  0  0  0  0  0  0  0  0
   20.2030  -28.7780   39.8860 C   0  0  0  0  0  0  0  0  0  0  0  0
   20.0750  -31.9600   39.0860 O   0  0  0  0  0  0  0  0  0  0  0  0
   19.5800  -32.9700   38.3020 C   0  0  0  0  0  0  0  0  0  0  0  0
   19.1320  -34.1180   38.9580 C   0  0  0  0  0  0  0  0  0  0  0  0
   18.6130  -35.1840   38.2190 C   0  0  0  0  0  0  0  0  0  0  0  0
   18.5430  -35.1020   36.8270 C   0  0  0  0  0  0  0  0  0  0  0  0
   18.9910  -33.9560   36.1750 C   0  0  0  0  0  0  0  0  0  0  0  0
   18.8920  -33.9420   34.8110 O   0  0  0  0  0  0  0  0  0  0  0  0
   19.5100  -32.8890   36.9140 C   0  0  0  0  0  0  0  0  0  0  0  0
   21.5300  -28.8500   36.9870 H   0  0  0  0  0  0  0  0  0  0  0  0
   23.0200  -30.6766   39.6333 H   0  0  0  0  0  0  0  0  0  0  0  0
   23.8165  -29.0028   41.2857 H   0  0  0  0  0  0  0  0  0  0  0  0
   23.5689  -26.8693   42.2654 H   0  0  0  0  0  0  0  0  0  0  0  0
   22.0124  -25.9294   42.1039 H   0  0  0  0  0  0  0  0  0  0  0  0
   19.1765  -28.7205   39.4949 H   0  0  0  0  0  0  0  0  0  0  0  0
   19.1875  -34.1831   40.0547 H   0  0  0  0  0  0  0  0  0  0  0  0
   18.2591  -36.0890   38.7345 H   0  0  0  0  0  0  0  0  0  0  0  0
   18.1344  -35.9418   36.2459 H   0  0  0  0  0  0  0  0  0  0  0  0
   18.1590  -33.5270   34.3990 H   0  0  0  0  0  0  0  0  0  0  0  0
  1  2  2  0
  2  3  1  0
  3  4  1  0
  3  5  2  0
  5  6  1  0
  6  7  2  0
  7  8  1  0
  8  9  2  0
  9 10  1  0
 10 11  1  0
  9 12  1  0
 12 13  1  0
 13 14  1  0
 13 15  1  0
 13 16  1  0
 12 17  2  0
  5 18  1  0
 18 19  1  0
 19 20  2  0
 20 21  1  0
 21 22  2  0
 22 23  1  0
 23 24  1  0
 23 25  2  0
 25  2  1  0
 17  6  1  0
 25 19  1  0
  4 26  1  0
  7 27  1  0
  8 28  1  0
 10 29  1  0
 10 30  1  0
 17 31  1  0
 20 32  1  0
 21 33  1  0
 22 34  1  0
 24 35  1  0
M  END
>  <meeko>  (2) 
{"is_sidechain": [false], "free_energy": -9.367, "intermolecular_energy": -11.512, "internal_energy": -0.546}

$$$$
cand_010_out
     RDKit          3D

 35 37  0  0  0  0  0  0  0  0999 V2000
   20.6760  -30.6740   35.7140 O   0  0  0  0  0  0  0  0  0  0  0  0
   20.4750  -30.6480   36.9270 C   0  0  0  0  0  0  0  0  0  0  0  0
   20.9530  -29.5080   37.7430 C   0  0  0  0  0  0  0  0  0  0  0  0
   21.6120  -28.4900   37.0790 O   0  0  0  0  0  0  0  0  0  0  0  0
   20.7080  -29.5180   39.0660 C   0  0  0  0  0  0  0  0  0  0  0  0
   21.1290  -28.4300   39.9740 C   0  0  0  0  0  0  0  0  0  0  0  0
   20.6510  -27.1240   39.8290 C   0  0  0  0  0  0  0  0  0  0  0  0
   21.0820  -26.1040   40.6830 C   0  0  0  0  0  0  0  0  0  0  0  0
   22.0120  -26.3620   41.7010 C   0  0  0  0  0  0  0  0  0  0  0  0
   22.4480  -25.2340   42.6080 C   0  0  0  0  0  0  0  0  0  0  0  0
   23.4350  -24.4600   42.0700 F   0  0  0  0  0  0  0  0  0  0  0  0
   22.5080  -27.6750   41.8610 C   0  0  0  0  0  0  0  0  0  0  0  0
   23.5140  -28.0080   42.9390 C   0  0  0  0  0  0  0  0  0  0  0  0
   24.4780  -27.0600   43.1070 F   0  0  0  0  0  0  0  0  0  0  0  0
   22.9300  -28.1670   44.1590 F   0  0  0  0  0  0  0  0  0  0  0  0
   24.1770  -29.1720   42.6900 F   0  0  0  0  0  0  0  0  0  0  0  0
   22.0630  -28.6890   40.9880 C   0  0  0  0  0  0  0  0  0  0  0  0
   20.0180  -30.5320   39.7200 O   0  0  0  0  0  0  0  0  0  0  0  0
   19.5700  -31.6050   38.9920 C   0  0  0  0  0  0  0  0  0  0  0  0
   18.8950  -32.6060   39.6910 C   0  0  0  0  0  0  0  0  0  0  0  0
   18.4120  -33.7250   39.0090 C   0  0  0  0  0  0  0  0  0  0  0  0
   18.6040  -33.8430   37.6310 C   0  0  0  0  0  0  0  0  0  0  0  0
   19.2780  -32.8420   36.9370 C   0  0  0  0  0  0  0  0  0  0  0  0
   19.4290  -33.0200   35.5880 O   0  0  0  0  0  0  0  0  0  0  0  0
   19.7610  -31.7220   37.6180 C   0  0  0  0  0  0  0  0  0  0  0  0
   21.9920  -28.6480   36.2370 H   0  0  0  0  0  0  0  0  0  0  0  0
   19.9268  -26.8961   39.0331 H   0  0  0  0  0  0  0  0  0  0  0  0
   20.6864  -25.0856   40.5548 H   0  0  0  0  0  0  0  0  0  0  0  0
   21.5766  -24.5952   42.8144 H   0  0  0  0  0  0  0  0  0  0  0  0
   22.8536  -25.6898   43.5233 H   0  0  0  0  0  0  0  0  0  0  0  0
   22.4583  -29.7088   41.1051 H   0  0  0  0  0  0  0  0  0  0  0  0
   18.7436  -32.5142   40.7766 H   0  0  0  0  0  0  0  0  0  0  0  0
   17.8792  -34.5150   39.5586 H   0  0  0  0  0  0  0  0  0  0  0  0
   18.2235  -34.7250   37.0950 H   0  0  0  0  0  0  0  0  0  0  0  0
   18.6860  -32.9540   35.0210 H   0  0  0  0  0  0  0  0  0  0  0  0
  1  2  2  0
  2  3  1  0
  3  4  1  0
  3  5  2  0
  5  6  1  0
  6  7  2  0
  7  8  1  0
  8  9  2  0
  9 10  1  0
 10 11  1  0
  9 12  1  0
 12 13  1  0
 13 14  1  0
 13 15  1  0
 13 16  1  0
 12 17  2  0
  5 18  1  0
 18 19  1  0
 19 20  2  0
 20 21  1  0
 21 22  2  0
 22 23  1  0
 23 24  1  0
 23 25  2  0
 25  2  1  0
 17  6  1  0
 25 19  1  0
  4 26  1  0
  7 27  1  0
  8 28  1  0
 10 29  1  0
 10 30  1  0
 17 31  1  0
 20 32  1  0
 21 33  1  0
 22 34  1  0
 24 35  1  0
M  END
>  <meeko>  (3) 
{"is_sidechain": [false], "free_energy": -9.348, "intermolecular_energy": -11.766, "internal_energy": -0.27}

$$$$
cand_010_out
     RDKit          3D

 35 37  0  0  0  0  0  0  0  0999 V2000
   21.3620  -25.1030   41.2270 O   0  0  0  0  0  0  0  0  0  0  0  0
   21.7180  -26.2790   41.1720 C   0  0  0  0  0  0  0  0  0  0  0  0
   21.1840  -27.1750   40.1210 C   0  0  0  0  0  0  0  0  0  0  0  0
   20.2940  -26.6270   39.2150 O   0  0  0  0  0  0  0  0  0  0  0  0
   21.6020  -28.4540   40.0940 C   0  0  0  0  0  0  0  0  0  0  0  0
   21.1450  -29.4340   39.0850 C   0  0  0  0  0  0  0  0  0  0  0  0
   21.3720  -29.2430   37.7180 C   0  0  0  0  0  0  0  0  0  0  0  0
   20.9080  -30.1680   36.7790 C   0  0  0  0  0  0  0  0  0  0  0  0
   20.1940  -31.3070   37.1810 C   0  0  0  0  0  0  0  0  0  0  0  0
   19.7150  -32.2880   36.1360 C   0  0  0  0  0  0  0  0  0  0  0  0
   20.4300  -32.2310   34.9750 F   0  0  0  0  0  0  0  0  0  0  0  0
   19.9530  -31.5150   38.5580 C   0  0  0  0  0  0  0  0  0  0  0  0
   19.1870  -32.7230   39.0470 C   0  0  0  0  0  0  0  0  0  0  0  0
   19.6780  -33.9100   38.5930 F   0  0  0  0  0  0  0  0  0  0  0  0
   19.1840  -32.8170   40.4050 F   0  0  0  0  0  0  0  0  0  0  0  0
   17.8780  -32.6950   38.6740 F   0  0  0  0  0  0  0  0  0  0  0  0
   20.4260  -30.5680   39.4900 C   0  0  0  0  0  0  0  0  0  0  0  0
   22.5200  -28.9890   40.9900 O   0  0  0  0  0  0  0  0  0  0  0  0
   23.0250  -28.1860   41.9800 C   0  0  0  0  0  0  0  0  0  0  0  0
   23.9330  -28.7670   42.8660 C   0  0  0  0  0  0  0  0  0  0  0  0
   24.4870  -28.0040   43.8960 C   0  0  0  0  0  0  0  0  0  0  0  0
   24.1330  -26.6610   44.0400 C   0  0  0  0  0  0  0  0  0  0  0  0
   23.2270  -26.0830   43.1550 C   0  0  0  0  0  0  0  0  0  0  0  0
   22.9260  -24.7630   43.3520 O   0  0  0  0  0  0  0  0  0  0  0  0
   22.6730  -26.8470   42.1240 C   0  0  0  0  0  0  0  0  0  0  0  0
   19.4480  -27.0130   39.0980 H   0  0  0  0  0  0  0  0  0  0  0  0
   21.9226  -28.3535   37.3779 H   0  0  0  0  0  0  0  0  0  0  0  0
   21.1052  -30.0009   35.7098 H   0  0  0  0  0  0  0  0  0  0  0  0
   19.7976  -33.3048   36.5475 H   0  0  0  0  0  0  0  0  0  0  0  0
   18.6756  -32.0231   35.8922 H   0  0  0  0  0  0  0  0  0  0  0  0
   20.2261  -30.7226   40.5606 H   0  0  0  0  0  0  0  0  0  0  0  0
   24.2121  -29.8250   42.7532 H   0  0  0  0  0  0  0  0  0  0  0  0
   25.2030  -28.4614   44.5946 H   0  0  0  0  0  0  0  0  0  0  0  0
   24.5694  -26.0604   44.8517 H   0  0  0  0  0  0  0  0  0  0  0  0
   23.6130  -24.1430   43.4970 H   0  0  0  0  0  0  0  0  0  0  0  0
  1  2  2  0
  2  3  1  0
  3  4  1  0
  3  5  2  0
  5  6  1  0
  6  7  2  0
  7  8  1  0
  8  9  2  0
  9 10  1  0
 10 11  1  0
  9 12  1  0
 12 13  1  0
 13 14  1  0
 13 15  1  0
 13 16  1  0
 12 17  2  0
  5 18  1  0
 18 19  1  0
 19 20  2  0
 20 21  1  0
 21 22  2  0
 22 23  1  0
 23 24  1  0
 23 25  2  0
 25  2  1  0
 17  6  1  0
 25 19  1  0
  4 26  1  0
  7 27  1  0
  8 28  1  0
 10 29  1  0
 10 30  1  0
 17 31  1  0
 20 32  1  0
 21 33  1  0
 22 34  1  0
 24 35  1  0
M  END
>  <meeko>  (4) 
{"is_sidechain": [false], "free_energy": -9.244, "intermolecular_energy": -11.619, "internal_energy": -0.287}

$$$$
cand_010_out
     RDKit          3D

 35 37  0  0  0  0  0  0  0  0999 V2000
   20.8160  -28.2130   36.5540 O   0  0  0  0  0  0  0  0  0  0  0  0
   20.7070  -28.6230   37.7080 C   0  0  0  0  0  0  0  0  0  0  0  0
   20.9660  -27.7210   38.8540 C   0  0  0  0  0  0  0  0  0  0  0  0
   21.3160  -26.4150   38.5620 O   0  0  0  0  0  0  0  0  0  0  0  0
   20.8320  -28.2100   40.1000 C   0  0  0  0  0  0  0  0  0  0  0  0
   21.0540  -27.3980   41.3160 C   0  0  0  0  0  0  0  0  0  0  0  0
   20.0840  -26.5140   41.7980 C   0  0  0  0  0  0  0  0  0  0  0  0
   20.3260  -25.7360   42.9340 C   0  0  0  0  0  0  0  0  0  0  0  0
   21.5500  -25.8150   43.6150 C   0  0  0  0  0  0  0  0  0  0  0  0
   21.7690  -24.9630   44.8440 C   0  0  0  0  0  0  0  0  0  0  0  0
   20.6090  -24.5990   45.4620 F   0  0  0  0  0  0  0  0  0  0  0  0
   22.5420  -26.7010   43.1410 C   0  0  0  0  0  0  0  0  0  0  0  0
   23.8800  -26.8250   43.8340 C   0  0  0  0  0  0  0  0  0  0  0  0
   24.6460  -25.7010   43.7600 F   0  0  0  0  0  0  0  0  0  0  0  0
   23.7510  -27.1010   45.1610 F   0  0  0  0  0  0  0  0  0  0  0  0
   24.6420  -27.8290   43.3190 F   0  0  0  0  0  0  0  0  0  0  0  0
   22.2810  -27.4760   41.9910 C   0  0  0  0  0  0  0  0  0  0  0  0
   20.4500  -29.5160   40.3850 O   0  0  0  0  0  0  0  0  0  0  0  0
   20.2120  -30.3780   39.3450 C   0  0  0  0  0  0  0  0  0  0  0  0
   19.8450  -31.6830   39.6750 C   0  0  0  0  0  0  0  0  0  0  0  0
   19.5860  -32.6100   38.6630 C   0  0  0  0  0  0  0  0  0  0  0  0
   19.6940  -32.2340   37.3230 C   0  0  0  0  0  0  0  0  0  0  0  0
   20.0610  -30.9310   36.9960 C   0  0  0  0  0  0  0  0  0  0  0  0
   20.1470  -30.6290   35.6650 O   0  0  0  0  0  0  0  0  0  0  0  0
   20.3200  -30.0020   38.0080 C   0  0  0  0  0  0  0  0  0  0  0  0
   20.6610  -25.7450   38.5580 H   0  0  0  0  0  0  0  0  0  0  0  0
   19.1188  -26.4296   41.2771 H   0  0  0  0  0  0  0  0  0  0  0  0
   19.5456  -25.0521   43.2991 H   0  0  0  0  0  0  0  0  0  0  0  0
   22.3816  -25.5321   45.5587 H   0  0  0  0  0  0  0  0  0  0  0  0
   22.2668  -24.0388   44.5152 H   0  0  0  0  0  0  0  0  0  0  0  0
   23.0583  -28.1575   41.6150 H   0  0  0  0  0  0  0  0  0  0  0  0
   19.7598  -31.9812   40.7304 H   0  0  0  0  0  0  0  0  0  0  0  0
   19.2962  -33.6389   38.9225 H   0  0  0  0  0  0  0  0  0  0  0  0
   19.4897  -32.9653   36.5271 H   0  0  0  0  0  0  0  0  0  0  0  0
   20.7490  -31.0930   35.1170 H   0  0  0  0  0  0  0  0  0  0  0  0
  1  2  2  0
  2  3  1  0
  3  4  1  0
  3  5  2  0
  5  6  1  0
  6  7  2  0
  7  8  1  0
  8  9  2  0
  9 10  1  0
 10 11  1  0
  9 12  1  0
 12 13  1  0
 13 14  1  0
 13 15  1  0
 13 16  1  0
 12 17  2  0
  5 18  1  0
 18 19  1  0
 19 20  2  0
 20 21  1  0
 21 22  2  0
 22 23  1  0
 23 24  1  0
 23 25  2  0
 25  2  1  0
 17  6  1  0
 25 19  1  0
  4 26  1  0
  7 27  1  0
  8 28  1  0
 10 29  1  0
 10 30  1  0
 17 31  1  0
 20 32  1  0
 21 33  1  0
 22 34  1  0
 24 35  1  0
M  END
>  <meeko>  (5) 
{"is_sidechain": [false], "free_energy": -8.741, "intermolecular_energy": -10.878, "internal_energy": -0.407}

$$$$
cand_010_out
     RDKit          3D

 35 37  0  0  0  0  0  0  0  0999 V2000
   24.5230  -28.9250   43.0560 O   0  0  0  0  0  0  0  0  0  0  0  0
   23.5160  -28.6150   42.4220 C   0  0  0  0  0  0  0  0  0  0  0  0
   23.0630  -29.4430   41.2800 C   0  0  0  0  0  0  0  0  0  0  0  0
   23.8090  -30.5680   40.9820 O   0  0  0  0  0  0  0  0  0  0  0  0
   21.9540  -29.0690   40.6160 C   0  0  0  0  0  0  0  0  0  0  0  0
   21.4040  -29.8250   39.4700 C   0  0  0  0  0  0  0  0  0  0  0  0
   21.6350  -29.4300   38.1490 C   0  0  0  0  0  0  0  0  0  0  0  0
   21.0840  -30.1440   37.0810 C   0  0  0  0  0  0  0  0  0  0  0  0
   20.2780  -31.2700   37.3060 C   0  0  0  0  0  0  0  0  0  0  0  0
   19.7070  -32.0200   36.1250 C   0  0  0  0  0  0  0  0  0  0  0  0
   20.5250  -32.0090   35.0330 F   0  0  0  0  0  0  0  0  0  0  0  0
   20.0320  -31.6830   38.6340 C   0  0  0  0  0  0  0  0  0  0  0  0
   19.1680  -32.8870   38.9360 C   0  0  0  0  0  0  0  0  0  0  0  0
   17.9250  -32.8270   38.3810 F   0  0  0  0  0  0  0  0  0  0  0  0
   19.7220  -34.0450   38.4840 F   0  0  0  0  0  0  0  0  0  0  0  0
   18.9720  -33.0650   40.2710 F   0  0  0  0  0  0  0  0  0  0  0  0
   20.5940  -30.9470   39.6990 C   0  0  0  0  0  0  0  0  0  0  0  0
   21.1930  -27.9530   40.9420 O   0  0  0  0  0  0  0  0  0  0  0  0
   21.5920  -27.1610   41.9880 C   0  0  0  0  0  0  0  0  0  0  0  0
   20.8070  -26.0430   42.2720 C   0  0  0  0  0  0  0  0  0  0  0  0
   21.1570  -25.1960   43.3260 C   0  0  0  0  0  0  0  0  0  0  0  0
   22.2910  -25.4670   44.0950 C   0  0  0  0  0  0  0  0  0  0  0  0
   23.0730  -26.5830   43.8090 C   0  0  0  0  0  0  0  0  0  0  0  0
   24.1680  -26.7900   44.6030 O   0  0  0  0  0  0  0  0  0  0  0  0
   22.7220  -27.4310   42.7550 C   0  0  0  0  0  0  0  0  0  0  0  0
   24.4150  -30.9090   41.6110 H   0  0  0  0  0  0  0  0  0  0  0  0
   22.2582  -28.5462   37.9475 H   0  0  0  0  0  0  0  0  0  0  0  0
   21.2852  -29.8184   36.0497 H   0  0  0  0  0  0  0  0  0  0  0  0
   19.5372  -33.0650   36.4238 H   0  0  0  0  0  0  0  0  0  0  0  0
   18.7731  -31.5145   35.8381 H   0  0  0  0  0  0  0  0  0  0  0  0
   20.3919  -31.2609   40.7337 H   0  0  0  0  0  0  0  0  0  0  0  0
   19.9138  -25.8290   41.6667 H   0  0  0  0  0  0  0  0  0  0  0  0
   20.5387  -24.3144   43.5507 H   0  0  0  0  0  0  0  0  0  0  0  0
   22.5659  -24.7998   44.9253 H   0  0  0  0  0  0  0  0  0  0  0  0
   24.9850  -27.0400   44.2170 H   0  0  0  0  0  0  0  0  0  0  0  0
  1  2  2  0
  2  3  1  0
  3  4  1  0
  3  5  2  0
  5  6  1  0
  6  7  2  0
  7  8  1  0
  8  9  2  0
  9 10  1  0
 10 11  1  0
  9 12  1  0
 12 13  1  0
 13 14  1  0
 13 15  1  0
 13 16  1  0
 12 17  2  0
  5 18  1  0
 18 19  1  0
 19 20  2  0
 20 21  1  0
 21 22  2  0
 22 23  1  0
 23 24  1  0
 23 25  2  0
 25  2  1  0
 17  6  1  0
 25 19  1  0
  4 26  1  0
  7 27  1  0
  8 28  1  0
 10 29  1  0
 10 30  1  0
 17 31  1  0
 20 32  1  0
 21 33  1  0
 22 34  1  0
 24 35  1  0
M  END
>  <meeko>  (6) 
{"is_sidechain": [false], "free_energy": -8.718, "intermolecular_energy": -10.823, "internal_energy": -0.435}

$$$$
cand_010_out
     RDKit          3D

 35 37  0  0  0  0  0  0  0  0999 V2000
   18.7150  -34.0270   37.9690 O   0  0  0  0  0  0  0  0  0  0  0  0
   19.3300  -33.0090   37.6560 C   0  0  0  0  0  0  0  0  0  0  0  0
   19.7380  -32.0300   38.6900 C   0  0  0  0  0  0  0  0  0  0  0  0
   19.4090  -32.3230   40.0010 O   0  0  0  0  0  0  0  0  0  0  0  0
   20.4120  -30.9310   38.3040 C   0  0  0  0  0  0  0  0  0  0  0  0
   20.8770  -29.8940   39.2490 C   0  0  0  0  0  0  0  0  0  0  0  0
   22.1500  -29.9430   39.8270 C   0  0  0  0  0  0  0  0  0  0  0  0
   22.5600  -28.9660   40.7390 C   0  0  0  0  0  0  0  0  0  0  0  0
   21.7030  -27.9170   41.1060 C   0  0  0  0  0  0  0  0  0  0  0  0
   22.1860  -26.8770   42.0900 C   0  0  0  0  0  0  0  0  0  0  0  0
   21.7890  -27.1210   43.3730 F   0  0  0  0  0  0  0  0  0  0  0  0
   20.4130  -27.8530   40.5350 C   0  0  0  0  0  0  0  0  0  0  0  0
   19.4480  -26.7470   40.8960 C   0  0  0  0  0  0  0  0  0  0  0  0
   19.9560  -25.4950   40.7290 F   0  0  0  0  0  0  0  0  0  0  0  0
   18.3100  -26.7900   40.1490 F   0  0  0  0  0  0  0  0  0  0  0  0
   19.0420  -26.8140   42.1940 F   0  0  0  0  0  0  0  0  0  0  0  0
   20.0160  -28.8500   39.6190 C   0  0  0  0  0  0  0  0  0  0  0  0
   20.7640  -30.6590   36.9870 O   0  0  0  0  0  0  0  0  0  0  0  0
   20.3930  -31.5430   36.0060 C   0  0  0  0  0  0  0  0  0  0  0  0
   20.7540  -31.2240   34.6970 C   0  0  0  0  0  0  0  0  0  0  0  0
   20.4080  -32.0820   33.6500 C   0  0  0  0  0  0  0  0  0  0  0  0
   19.7020  -33.2570   33.9130 C   0  0  0  0  0  0  0  0  0  0  0  0
   19.3420  -33.5730   35.2210 C   0  0  0  0  0  0  0  0  0  0  0  0
   18.6520  -34.7400   35.4080 O   0  0  0  0  0  0  0  0  0  0  0  0
   19.6880  -32.7150   36.2680 C   0  0  0  0  0  0  0  0  0  0  0  0
   19.1090  -33.1820   40.2270 H   0  0  0  0  0  0  0  0  0  0  0  0
   22.8366  -30.7601   39.5607 H   0  0  0  0  0  0  0  0  0  0  0  0
   23.5684  -29.0202   41.1750 H   0  0  0  0  0  0  0  0  0  0  0  0
   23.2855  -26.8551   42.0631 H   0  0  0  0  0  0  0  0  0  0  0  0
   21.7444  -25.9152   41.7900 H   0  0  0  0  0  0  0  0  0  0  0  0
   19.0065  -28.8077   39.1842 H   0  0  0  0  0  0  0  0  0  0  0  0
   21.3104  -30.2981   34.4893 H   0  0  0  0  0  0  0  0  0  0  0  0
   20.6923  -31.8313   32.6174 H   0  0  0  0  0  0  0  0  0  0  0  0
   19.4303  -33.9325   33.0885 H   0  0  0  0  0  0  0  0  0  0  0  0
   18.4450  -35.0270   36.2750 H   0  0  0  0  0  0  0  0  0  0  0  0
  1  2  2  0
  2  3  1  0
  3  4  1  0
  3  5  2  0
  5  6  1  0
  6  7  2  0
  7  8  1  0
  8  9  2  0
  9 10  1  0
 10 11  1  0
  9 12  1  0
 12 13  1  0
 13 14  1  0
 13 15  1  0
 13 16  1  0
 12 17  2  0
  5 18  1  0
 18 19  1  0
 19 20  2  0
 20 21  1  0
 21 22  2  0
 22 23  1  0
 23 24  1  0
 23 25  2  0
 25  2  1  0
 17  6  1  0
 25 19  1  0
  4 26  1  0
  7 27  1  0
  8 28  1  0
 10 29  1  0
 10 30  1  0
 17 31  1  0
 20 32  1  0
 21 33  1  0
 22 34  1  0
 24 35  1  0
M  END
>  <meeko>  (7) 
{"is_sidechain": [false], "free_energy": -8.651, "intermolecular_energy": -10.625, "internal_energy": -0.55}

$$$$
cand_010_out
     RDKit          3D

 35 37  0  0  0  0  0  0  0  0999 V2000
   18.7920  -34.2440   37.8100 O   0  0  0  0  0  0  0  0  0  0  0  0
   19.1520  -33.1210   37.4610 C   0  0  0  0  0  0  0  0  0  0  0  0
   19.1660  -32.0020   38.4310 C   0  0  0  0  0  0  0  0  0  0  0  0
   18.7760  -32.2860   39.7270 O   0  0  0  0  0  0  0  0  0  0  0  0
   19.5700  -30.7900   38.0080 C   0  0  0  0  0  0  0  0  0  0  0  0
   19.6350  -29.6060   38.8910 C   0  0  0  0  0  0  0  0  0  0  0  0
   18.6020  -28.6650   38.9380 C   0  0  0  0  0  0  0  0  0  0  0  0
   18.6960  -27.5390   39.7600 C   0  0  0  0  0  0  0  0  0  0  0  0
   19.8320  -27.3170   40.5520 C   0  0  0  0  0  0  0  0  0  0  0  0
   19.8920  -26.0910   41.4330 C   0  0  0  0  0  0  0  0  0  0  0  0
   19.5200  -26.3340   42.7230 F   0  0  0  0  0  0  0  0  0  0  0  0
   20.8870  -28.2550   40.5150 C   0  0  0  0  0  0  0  0  0  0  0  0
   22.1370  -28.0650   41.3460 C   0  0  0  0  0  0  0  0  0  0  0  0
   21.9200  -28.1170   42.6890 F   0  0  0  0  0  0  0  0  0  0  0  0
   23.0800  -29.0120   41.0840 F   0  0  0  0  0  0  0  0  0  0  0  0
   22.7390  -26.8660   41.1120 F   0  0  0  0  0  0  0  0  0  0  0  0
   20.7760  -29.3840   39.6770 C   0  0  0  0  0  0  0  0  0  0  0  0
   19.9890  -30.5210   36.7100 O   0  0  0  0  0  0  0  0  0  0  0  0
   19.9780  -31.5350   35.7870 C   0  0  0  0  0  0  0  0  0  0  0  0
   20.3930  -31.2180   34.4930 C   0  0  0  0  0  0  0  0  0  0  0  0
   20.4080  -32.2050   33.5050 C   0  0  0  0  0  0  0  0  0  0  0  0
   20.0070  -33.5070   33.8100 C   0  0  0  0  0  0  0  0  0  0  0  0
   19.5930  -33.8210   35.1020 C   0  0  0  0  0  0  0  0  0  0  0  0
   19.2160  -35.1160   35.3330 O   0  0  0  0  0  0  0  0  0  0  0  0
   19.5790  -32.8330   36.0910 C   0  0  0  0  0  0  0  0  0  0  0  0
   19.4200  -32.3600   40.4040 H   0  0  0  0  0  0  0  0  0  0  0  0
   17.7040  -28.8129   38.3201 H   0  0  0  0  0  0  0  0  0  0  0  0
   17.8671  -26.8163   39.7863 H   0  0  0  0  0  0  0  0  0  0  0  0
   20.9244  -25.7115   41.4331 H   0  0  0  0  0  0  0  0  0  0  0  0
   19.1811  -25.3594   41.0215 H   0  0  0  0  0  0  0  0  0  0  0  0
   21.6035  -30.1077   39.6387 H   0  0  0  0  0  0  0  0  0  0  0  0
   20.7079  -30.1921   34.2514 H   0  0  0  0  0  0  0  0  0  0  0  0
   20.7363  -31.9561   32.4850 H   0  0  0  0  0  0  0  0  0  0  0  0
   20.0180  -34.2836   33.0310 H   0  0  0  0  0  0  0  0  0  0  0  0
   19.7300  -35.8210   34.9910 H   0  0  0  0  0  0  0  0  0  0  0  0
  1  2  2  0
  2  3  1  0
  3  4  1  0
  3  5  2  0
  5  6  1  0
  6  7  2  0
  7  8  1  0
  8  9  2  0
  9 10  1  0
 10 11  1  0
  9 12  1  0
 12 13  1  0
 13 14  1  0
 13 15  1  0
 13 16  1  0
 12 17  2  0
  5 18  1  0
 18 19  1  0
 19 20  2  0
 20 21  1  0
 21 22  2  0
 22 23  1  0
 23 24  1  0
 23 25  2  0
 25  2  1  0
 17  6  1  0
 25 19  1  0
  4 26  1  0
  7 27  1  0
  8 28  1  0
 10 29  1  0
 10 30  1  0
 17 31  1  0
 20 32  1  0
 21 33  1  0
 22 34  1  0
 24 35  1  0
M  END
>  <meeko>  (8) 
{"is_sidechain": [false], "free_energy": -8.485, "intermolecular_energy": -10.421, "internal_energy": -0.549}

$$$$
cand_010_out
     RDKit          3D

 35 37  0  0  0  0  0  0  0  0999 V2000
   19.6520  -26.0340   36.4120 O   0  0  0  0  0  0  0  0  0  0  0  0
   20.0820  -26.9430   37.1210 C   0  0  0  0  0  0  0  0  0  0  0  0
   20.5050  -26.6730   38.5140 C   0  0  0  0  0  0  0  0  0  0  0  0
   20.3800  -25.3730   38.9710 O   0  0  0  0  0  0  0  0  0  0  0  0
   20.9650  -27.6970   39.2550 C   0  0  0  0  0  0  0  0  0  0  0  0
   21.4040  -27.5460   40.6590 C   0  0  0  0  0  0  0  0  0  0  0  0
   20.8180  -26.6100   41.5170 C   0  0  0  0  0  0  0  0  0  0  0  0
   21.2660  -26.4650   42.8330 C   0  0  0  0  0  0  0  0  0  0  0  0
   22.3210  -27.2480   43.3260 C   0  0  0  0  0  0  0  0  0  0  0  0
   22.7710  -27.0660   44.7570 C   0  0  0  0  0  0  0  0  0  0  0  0
   23.7950  -26.1740   44.8910 F   0  0  0  0  0  0  0  0  0  0  0  0
   22.9270  -28.1970   42.4730 C   0  0  0  0  0  0  0  0  0  0  0  0
   24.0690  -29.0650   42.9500 C   0  0  0  0  0  0  0  0  0  0  0  0
   25.1320  -28.3620   43.4320 F   0  0  0  0  0  0  0  0  0  0  0  0
   23.6940  -29.9070   43.9520 F   0  0  0  0  0  0  0  0  0  0  0  0
   24.5660  -29.8600   41.9630 F   0  0  0  0  0  0  0  0  0  0  0  0
   22.4630  -28.3260   41.1470 C   0  0  0  0  0  0  0  0  0  0  0  0
   21.0590  -29.0060   38.7970 O   0  0  0  0  0  0  0  0  0  0  0  0
   20.6840  -29.2850   37.5080 C   0  0  0  0  0  0  0  0  0  0  0  0
   20.8080  -30.6090   37.0850 C   0  0  0  0  0  0  0  0  0  0  0  0
   20.4410  -30.9620   35.7850 C   0  0  0  0  0  0  0  0  0  0  0  0
   19.9510  -29.9920   34.9080 C   0  0  0  0  0  0  0  0  0  0  0  0
   19.8280  -28.6710   35.3330 C   0  0  0  0  0  0  0  0  0  0  0  0
   19.3400  -27.7720   34.4240 O   0  0  0  0  0  0  0  0  0  0  0  0
   20.1950  -28.3180   36.6340 C   0  0  0  0  0  0  0  0  0  0  0  0
   20.4730  -25.1870   39.8850 H   0  0  0  0  0  0  0  0  0  0  0  0
   19.9939  -25.9798   41.1515 H   0  0  0  0  0  0  0  0  0  0  0  0
   20.7849  -25.7268   43.4914 H   0  0  0  0  0  0  0  0  0  0  0  0
   21.9160  -26.7077   45.3491 H   0  0  0  0  0  0  0  0  0  0  0  0
   23.1395  -28.0407   45.1094 H   0  0  0  0  0  0  0  0  0  0  0  0
   22.9435  -29.0562   40.4792 H   0  0  0  0  0  0  0  0  0  0  0  0
   21.1944  -31.3736   37.7749 H   0  0  0  0  0  0  0  0  0  0  0  0
   20.5380  -32.0056   35.4511 H   0  0  0  0  0  0  0  0  0  0  0  0
   19.6627  -30.2704   33.8836 H   0  0  0  0  0  0  0  0  0  0  0  0
   19.9310  -27.2800   33.8890 H   0  0  0  0  0  0  0  0  0  0  0  0
  1  2  2  0
  2  3  1  0
  3  4  1  0
  3  5  2  0
  5  6  1  0
  6  7  2  0
  7  8  1  0
  8  9  2  0
  9 10  1  0
 10 11  1  0
  9 12  1  0
 12 13  1  0
 13 14  1  0
 13 15  1  0
 13 16  1  0
 12 17  2  0
  5 18  1  0
 18 19  1  0
 19 20  2  0
 20 21  1  0
 21 22  2  0
 22 23  1  0
 23 24  1  0
 23 25  2  0
 25  2  1  0
 17  6  1  0
 25 19  1  0
  4 26  1  0
  7 27  1  0
  8 28  1  0
 10 29  1  0
 10 30  1  0
 17 31  1  0
 20 32  1  0
 21 33  1  0
 22 34  1  0
 24 35  1  0
M  END
>  <meeko>  (9) 
{"is_sidechain": [false], "free_energy": -8.15, "intermolecular_energy": -10.475, "internal_energy": -0.081}

$$$$
