cand_040_out
     RDKit          3D

 36 38  0  0  0  0  0  0  0  0999 V2000
   24.1750  -25.8660   43.4420 C   0  0  0  0  0  0  0  0  0  0  0  0
   23.9310  -27.1780   43.5450 C   0  0  0  0  0  0  0  0  0  0  0  0
   23.2950  -27.9700   42.4820 C   0  0  0  0  0  0  0  0  0  0  0  0
   22.2510  -27.4100   41.7320 C   0  0  0  0  0  0  0  0  0  0  0  0
   21.6490  -28.1240   40.6920 C   0  0  0  0  0  0  0  0  0  0  0  0
   22.0840  -29.4130   40.3650 C   0  0  0  0  0  0  0  0  0  0  0  0
   21.4190  -30.1600   39.2770 C   0  0  0  0  0  0  0  0  0  0  0  0
   20.5990  -31.1810   39.7460 O   0  0  0  0  0  0  0  0  0  0  0  0
   19.9190  -31.9540   38.8410 C   0  0  0  0  0  0  0  0  0  0  0  0
   19.1210  -32.9770   39.3560 C   0  0  0  0  0  0  0  0  0  0  0  0
   18.4010  -33.8010   38.4890 C   0  0  0  0  0  0  0  0  0  0  0  0
   18.4790  -33.6040   37.1080 C   0  0  0  0  0  0  0  0  0  0  0  0
   19.2760  -32.5830   36.5980 C   0  0  0  0  0  0  0  0  0  0  0  0
   19.3060  -32.4440   35.2380 O   0  0  0  0  0  0  0  0  0  0  0  0
   19.9970  -31.7580   37.4660 C   0  0  0  0  0  0  0  0  0  0  0  0
   20.8470  -30.6740   36.9720 C   0  0  0  0  0  0  0  0  0  0  0  0
   20.9610  -30.4330   35.7710 O   0  0  0  0  0  0  0  0  0  0  0  0
   21.5760  -29.8630   37.9730 C   0  0  0  0  0  0  0  0  0  0  0  0
   22.3650  -28.8340   37.4960 O   0  0  0  0  0  0  0  0  0  0  0  0
   23.1290  -29.9730   41.1150 C   0  0  0  0  0  0  0  0  0  0  0  0
   23.7430  -29.2670   42.1680 C   0  0  0  0  0  0  0  0  0  0  0  0
   24.8660  -29.9240   42.9240 C   0  0  0  0  0  0  0  0  0  0  0  0
   24.6544  -25.3288   44.2736 H   0  0  0  0  0  0  0  0  0  0  0  0
   23.8961  -25.3250   42.5258 H   0  0  0  0  0  0  0  0  0  0  0  0
   24.2216  -27.6907   44.4738 H   0  0  0  0  0  0  0  0  0  0  0  0
   21.9006  -26.3938   41.9655 H   0  0  0  0  0  0  0  0  0  0  0  0
   20.8245  -27.6677   40.1246 H   0  0  0  0  0  0  0  0  0  0  0  0
   19.0596  -33.1336   40.4431 H   0  0  0  0  0  0  0  0  0  0  0  0
   17.7711  -34.6068   38.8939 H   0  0  0  0  0  0  0  0  0  0  0  0
   17.9120  -34.2541   36.4254 H   0  0  0  0  0  0  0  0  0  0  0  0
   19.6030  -33.1520   34.7000 H   0  0  0  0  0  0  0  0  0  0  0  0
   23.2130  -29.0190   37.1420 H   0  0  0  0  0  0  0  0  0  0  0  0
   23.4775  -30.9883   40.8749 H   0  0  0  0  0  0  0  0  0  0  0  0
   24.6899  -29.8210   44.0049 H   0  0  0  0  0  0  0  0  0  0  0  0
   24.9110  -30.9909   42.6599 H   0  0  0  0  0  0  0  0  0  0  0  0
   25.8180  -29.4404   42.6599 H   0  0  0  0  0  0  0  0  0  0  0  0
  1  2  2  0
  2  3  1  0
  3  4  2  0
  4  5  1  0
  5  6  2  0
  6  7  1  0
  7  8  1  0
  8  9  1  0
  9 10  2  0
 10 11  1  0
 11 12  2  0
 12 13  1  0
 13 14  1  0
 13 15  2  0
 15 16  1  0
 16 17  2  0
 16 18  1  0
 18 19  1  0
  6 20  1  0
 20 21  2  0
 21 22  1  0
 21  3  1  0
 18  7  2  0
 15  9  1  0
  1 23  1  0
  1 24  1  0
  2 25  1  0
  4 26  1  0
  5 27  1  0
 10 28  1  0
 11 29  1  0
 12 30  1  0
 14 31  1  0
 19 32  1  0
 20 33  1  0
 22 34  1  0
 22 35  1  0
 22 36  1  0
M  END
>  <meeko>  (1) 
{"is_sidechain": [false], "free_energy": -9.426, "intermolecular_energy": -11.079, "internal_energy": -0.407}

$$$$
cand_040_out
     RDKit          3D

 36 38  0  0  0  0  0  0  0  0999 V2000
   23.4600  -27.1120   43.1180 C   0  0  0  0  0  0  0  0  0  0  0  0
   22.4350  -26.8540   42.2960 C   0  0  0  0  0  0  0  0  0  0  0  0
   21.9140  -27.8230   41.3200 C   0  0  0  0  0  0  0  0  0  0  0  0
   22.7400  -28.8610   40.8670 C   0  0  0  0  0  0  0  0  0  0  0  0
   22.2640  -29.8180   39.9660 C   0  0  0  0  0  0  0  0  0  0  0  0
   20.9430  -29.7700   39.5050 C   0  0  0  0  0  0  0  0  0  0  0  0
   20.4660  -30.7780   38.5340 C   0  0  0  0  0  0  0  0  0  0  0  0
   20.0100  -31.9410   39.1430 O   0  0  0  0  0  0  0  0  0  0  0  0
   19.5380  -32.9600   38.3580 C   0  0  0  0  0  0  0  0  0  0  0  0
   19.1050  -34.1160   39.0110 C   0  0  0  0  0  0  0  0  0  0  0  0
   18.6110  -35.1910   38.2690 C   0  0  0  0  0  0  0  0  0  0  0  0
   18.5490  -35.1110   36.8760 C   0  0  0  0  0  0  0  0  0  0  0  0
   18.9820  -33.9570   36.2280 C   0  0  0  0  0  0  0  0  0  0  0  0
   18.8920  -33.9460   34.8630 O   0  0  0  0  0  0  0  0  0  0  0  0
   19.4770  -32.8820   36.9700 C   0  0  0  0  0  0  0  0  0  0  0  0
   19.9420  -31.6520   36.3280 C   0  0  0  0  0  0  0  0  0  0  0  0
   19.9120  -31.5030   35.1070 O   0  0  0  0  0  0  0  0  0  0  0  0
   20.4560  -30.5730   37.2030 C   0  0  0  0  0  0  0  0  0  0  0  0
   20.8800  -29.4110   36.5880 O   0  0  0  0  0  0  0  0  0  0  0  0
   20.1170  -28.7320   39.9580 C   0  0  0  0  0  0  0  0  0  0  0  0
   20.5840  -27.7580   40.8630 C   0  0  0  0  0  0  0  0  0  0  0  0
   19.6390  -26.6780   41.3180 C   0  0  0  0  0  0  0  0  0  0  0  0
   23.8033  -26.3441   43.8268 H   0  0  0  0  0  0  0  0  0  0  0  0
   23.9587  -28.0919   43.0845 H   0  0  0  0  0  0  0  0  0  0  0  0
   21.9573  -25.8648   42.3538 H   0  0  0  0  0  0  0  0  0  0  0  0
   23.7780  -28.9234   41.2258 H   0  0  0  0  0  0  0  0  0  0  0  0
   22.9342  -30.6168   39.6157 H   0  0  0  0  0  0  0  0  0  0  0  0
   19.1530  -34.1797   40.1081 H   0  0  0  0  0  0  0  0  0  0  0  0
   18.2702  -36.1022   38.7824 H   0  0  0  0  0  0  0  0  0  0  0  0
   18.1590  -35.9577   36.2921 H   0  0  0  0  0  0  0  0  0  0  0  0
   18.0740  -34.1320   34.4440 H   0  0  0  0  0  0  0  0  0  0  0  0
   21.0820  -29.4120   35.6720 H   0  0  0  0  0  0  0  0  0  0  0  0
   19.0790  -28.6764   39.5983 H   0  0  0  0  0  0  0  0  0  0  0  0
   19.6152  -26.6509   42.4174 H   0  0  0  0  0  0  0  0  0  0  0  0
   19.9816  -25.7056   40.9345 H   0  0  0  0  0  0  0  0  0  0  0  0
   18.6297  -26.8884   40.9345 H   0  0  0  0  0  0  0  0  0  0  0  0
  1  2  2  0
  2  3  1  0
  3  4  2  0
  4  5  1  0
  5  6  2  0
  6  7  1  0
  7  8  1  0
  8  9  1  0
  9 10  2  0
 10 11  1  0
 11 12  2  0
 12 13  1  0
 13 14  1  0
 13 15  2  0
 15 16  1  0
 16 17  2  0
 16 18  1  0
 18 19  1  0
  6 20  1  0
 20 21  2  0
 21 22  1  0
 21  3  1  0
 18  7  2  0
 15  9  1  0
  1 23  1  0
  1 24  1  0
  2 25  1  0
  4 26  1  0
  5 27  1  0
 10 28  1  0
 11 29  1  0
 12 30  1  0
 14 31  1  0
 19 32  1  0
 20 33  1  0
 22 34  1  0
 22 35  1  0
 22 36  1  0
M  END
>  <meeko>  (2) 
{"is_sidechain": [false], "free_energy": -9.214, "intermolecular_energy": -10.774, "internal_energy": -0.463}

$$$$
cand_040_out
     RDKit          3D

 36 38  0  0  0  0  0  0  0  0999 V2000
   20.0590  -32.2420   35.1140 C   0  0  0  0  0  0  0  0  0  0  0  0
   19.6890  -32.2700   36.4010 C   0  0  0  0  0  0  0  0  0  0  0  0
   20.1670  -31.3070   37.4030 C   0  0  0  0  0  0  0  0  0  0  0  0
   20.8760  -30.1710   36.9890 C   0  0  0  0  0  0  0  0  0  0  0  0
   21.3140  -29.2190   37.9140 C   0  0  0  0  0  0  0  0  0  0  0  0
   21.0430  -29.3710   39.2780 C   0  0  0  0  0  0  0  0  0  0  0  0
   21.5350  -28.3650   40.2430 C   0  0  0  0  0  0  0  0  0  0  0  0
   22.4450  -28.8910   41.1540 O   0  0  0  0  0  0  0  0  0  0  0  0
   22.9820  -28.0650   42.1070 C   0  0  0  0  0  0  0  0  0  0  0  0
   23.8790  -28.6390   43.0100 C   0  0  0  0  0  0  0  0  0  0  0  0
   24.4640  -27.8520   44.0050 C   0  0  0  0  0  0  0  0  0  0  0  0
   24.1520  -26.4930   44.0970 C   0  0  0  0  0  0  0  0  0  0  0  0
   23.2580  -25.9240   43.1940 C   0  0  0  0  0  0  0  0  0  0  0  0
   22.9990  -24.5890   43.3400 O   0  0  0  0  0  0  0  0  0  0  0  0
   22.6720  -26.7110   42.1990 C   0  0  0  0  0  0  0  0  0  0  0  0
   21.7270  -26.1530   41.2310 C   0  0  0  0  0  0  0  0  0  0  0  0
   21.4100  -24.9650   41.2420 O   0  0  0  0  0  0  0  0  0  0  0  0
   21.1560  -27.0740   40.2210 C   0  0  0  0  0  0  0  0  0  0  0  0
   20.2760  -26.5330   39.3040 O   0  0  0  0  0  0  0  0  0  0  0  0
   20.3340  -30.5080   39.6940 C   0  0  0  0  0  0  0  0  0  0  0  0
   19.8890  -31.4780   38.7730 C   0  0  0  0  0  0  0  0  0  0  0  0
   19.1240  -32.6680   39.2860 C   0  0  0  0  0  0  0  0  0  0  0  0
   19.6655  -32.9920   34.4121 H   0  0  0  0  0  0  0  0  0  0  0  0
   20.7564  -31.4690   34.7589 H   0  0  0  0  0  0  0  0  0  0  0  0
   18.9904  -33.0554   36.7251 H   0  0  0  0  0  0  0  0  0  0  0  0
   21.0910  -30.0265   35.9199 H   0  0  0  0  0  0  0  0  0  0  0  0
   21.8777  -28.3410   37.5657 H   0  0  0  0  0  0  0  0  0  0  0  0
   24.1246  -29.7088   42.9381 H   0  0  0  0  0  0  0  0  0  0  0  0
   25.1711  -28.3027   44.7169 H   0  0  0  0  0  0  0  0  0  0  0  0
   24.6119  -25.8739   44.8814 H   0  0  0  0  0  0  0  0  0  0  0  0
   23.6880  -23.9630   43.2280 H   0  0  0  0  0  0  0  0  0  0  0  0
   19.5030  -27.0050   39.0620 H   0  0  0  0  0  0  0  0  0  0  0  0
   20.1203  -30.6458   40.7642 H   0  0  0  0  0  0  0  0  0  0  0  0
   19.1288  -32.6606   40.3860 H   0  0  0  0  0  0  0  0  0  0  0  0
   18.0865  -32.6210   38.9235 H   0  0  0  0  0  0  0  0  0  0  0  0
   19.5975  -33.5923   38.9235 H   0  0  0  0  0  0  0  0  0  0  0  0
  1  2  2  0
  2  3  1  0
  3  4  2  0
  4  5  1  0
  5  6  2  0
  6  7  1  0
  7  8  1  0
  8  9  1  0
  9 10  2  0
 10 11  1  0
 11 12  2  0
 12 13  1  0
 13 14  1  0
 13 15  2  0
 15 16  1  0
 16 17  2  0
 16 18  1  0
 18 19  1  0
  6 20  1  0
 20 21  2  0
 21 22  1  0
 21  3  1  0
 18  7  2  0
 15  9  1  0
  1 23  1  0
  1 24  1  0
  2 25  1  0
  4 26  1  0
  5 27  1  0
 10 28  1  0
 11 29  1  0
 12 30  1  0
 14 31  1  0
 19 32  1  0
 20 33  1  0
 22 34  1  0
 22 35  1  0
 22 36  1  0
M  END
>  <meeko>  (3) 
{"is_sidechain": [false], "free_energy": -8.578, "intermolecular_energy": -10.178, "internal_energy": -0.312}

$$$$
cand_040_out
     RDKit          3D

 36 38  0  0  0  0  0  0  0  0999 V2000
   19.7840  -26.2690   42.3450 C   0  0  0  0  0  0  0  0  0  0  0  0
   20.6170  -26.6100   41.3530 C   0  0  0  0  0  0  0  0  0  0  0  0
   20.4310  -27.8010   40.5120 C   0  0  0  0  0  0  0  0  0  0  0  0
   19.2580  -27.9400   39.7570 C   0  0  0  0  0  0  0  0  0  0  0  0
   19.0660  -29.0430   38.9210 C   0  0  0  0  0  0  0  0  0  0  0  0
   20.0500  -30.0310   38.8060 C   0  0  0  0  0  0  0  0  0  0  0  0
   19.8180  -31.2030   37.9340 C   0  0  0  0  0  0  0  0  0  0  0  0
   20.1860  -30.9730   36.6130 O   0  0  0  0  0  0  0  0  0  0  0  0
   20.0240  -31.9790   35.6950 C   0  0  0  0  0  0  0  0  0  0  0  0
   20.3910  -31.6990   34.3770 C   0  0  0  0  0  0  0  0  0  0  0  0
   20.2530  -32.6810   33.3940 C   0  0  0  0  0  0  0  0  0  0  0  0
   19.7480  -33.9400   33.7260 C   0  0  0  0  0  0  0  0  0  0  0  0
   19.3830  -34.2150   35.0410 C   0  0  0  0  0  0  0  0  0  0  0  0
   18.8970  -35.4680   35.2970 O   0  0  0  0  0  0  0  0  0  0  0  0
   19.5210  -33.2330   36.0260 C   0  0  0  0  0  0  0  0  0  0  0  0
   19.1480  -33.4810   37.4190 C   0  0  0  0  0  0  0  0  0  0  0  0
   18.7040  -34.5660   37.7910 O   0  0  0  0  0  0  0  0  0  0  0  0
   19.3250  -32.3720   38.3840 C   0  0  0  0  0  0  0  0  0  0  0  0
   18.9830  -32.6210   39.6990 O   0  0  0  0  0  0  0  0  0  0  0  0
   21.2240  -29.8930   39.5600 C   0  0  0  0  0  0  0  0  0  0  0  0
   21.4300  -28.7880   40.4110 C   0  0  0  0  0  0  0  0  0  0  0  0
   22.7190  -28.6970   41.1830 C   0  0  0  0  0  0  0  0  0  0  0  0
   19.9780  -25.3640   42.9394 H   0  0  0  0  0  0  0  0  0  0  0  0
   18.9060  -26.8940   42.5652 H   0  0  0  0  0  0  0  0  0  0  0  0
   21.4861  -25.9647   41.1575 H   0  0  0  0  0  0  0  0  0  0  0  0
   18.4766  -27.1687   39.8238 H   0  0  0  0  0  0  0  0  0  0  0  0
   18.1319  -29.1355   38.3475 H   0  0  0  0  0  0  0  0  0  0  0  0
   20.7878  -30.7074   34.1139 H   0  0  0  0  0  0  0  0  0  0  0  0
   20.5427  -32.4624   32.3556 H   0  0  0  0  0  0  0  0  0  0  0  0
   19.6389  -34.7124   32.9504 H   0  0  0  0  0  0  0  0  0  0  0  0
   19.0320  -35.8610   36.1380 H   0  0  0  0  0  0  0  0  0  0  0  0
   18.2460  -32.1870   40.0820 H   0  0  0  0  0  0  0  0  0  0  0  0
   22.0033  -30.6657   39.4858 H   0  0  0  0  0  0  0  0  0  0  0  0
   22.5024  -28.7123   42.2614 H   0  0  0  0  0  0  0  0  0  0  0  0
   23.3615  -29.5520   40.9259 H   0  0  0  0  0  0  0  0  0  0  0  0
   23.2350  -27.7602   40.9259 H   0  0  0  0  0  0  0  0  0  0  0  0
  1  2  2  0
  2  3  1  0
  3  4  2  0
  4  5  1  0
  5  6  2  0
  6  7  1  0
  7  8  1  0
  8  9  1  0
  9 10  2  0
 10 11  1  0
 11 12  2  0
 12 13  1  0
 13 14  1  0
 13 15  2  0
 15 16  1  0
 16 17  2  0
 16 18  1  0
 18 19  1  0
  6 20  1  0
 20 21  2  0
 21 22  1  0
 21  3  1  0
 18  7  2  0
 15  9  1  0
  1 23  1  0
  1 24  1  0
  2 25  1  0
  4 26  1  0
  5 27  1  0
 10 28  1  0
 11 29  1  0
 12 30  1  0
 14 31  1  0
 19 32  1  0
 20 33  1  0
 22 34  1  0
 22 35  1  0
 22 36  1  0
M  END
>  <meeko>  (4) 
{"is_sidechain": [false], "free_energy": -8.565, "intermolecular_energy": -10.004, "internal_energy": -0.471}

$$$$
cand_040_out
     RDKit          3D

 36 38  0  0  0  0  0  0  0  0999 V2000
   21.7350  -26.9880   43.0480 C   0  0  0  0  0  0  0  0  0  0  0  0
   21.6560  -26.7890   41.7260 C   0  0  0  0  0  0  0  0  0  0  0  0
   21.2580  -27.8340   40.7710 C   0  0  0  0  0  0  0  0  0  0  0  0
   22.1460  -28.8790   40.4790 C   0  0  0  0  0  0  0  0  0  0  0  0
   21.7850  -29.9060   39.6020 C   0  0  0  0  0  0  0  0  0  0  0  0
   20.5200  -29.9230   39.0050 C   0  0  0  0  0  0  0  0  0  0  0  0
   20.1660  -31.0050   38.0620 C   0  0  0  0  0  0  0  0  0  0  0  0
   20.5390  -30.7240   36.7520 O   0  0  0  0  0  0  0  0  0  0  0  0
   20.2710  -31.6450   35.7740 C   0  0  0  0  0  0  0  0  0  0  0  0
   20.6480  -31.3140   34.4710 C   0  0  0  0  0  0  0  0  0  0  0  0
   20.4050  -32.2100   33.4270 C   0  0  0  0  0  0  0  0  0  0  0  0
   19.7840  -33.4350   33.6850 C   0  0  0  0  0  0  0  0  0  0  0  0
   19.4080  -33.7610   34.9850 C   0  0  0  0  0  0  0  0  0  0  0  0
   18.8070  -34.9760   35.1670 O   0  0  0  0  0  0  0  0  0  0  0  0
   19.6520  -32.8650   36.0300 C   0  0  0  0  0  0  0  0  0  0  0  0
   19.2730  -33.1690   37.4100 C   0  0  0  0  0  0  0  0  0  0  0  0
   18.7300  -34.2290   37.7170 O   0  0  0  0  0  0  0  0  0  0  0  0
   19.5670  -32.1490   38.4430 C   0  0  0  0  0  0  0  0  0  0  0  0
   19.2180  -32.4520   39.7450 O   0  0  0  0  0  0  0  0  0  0  0  0
   19.6320  -28.8780   39.2960 C   0  0  0  0  0  0  0  0  0  0  0  0
   19.9830  -27.8330   40.1750 C   0  0  0  0  0  0  0  0  0  0  0  0
   18.9760  -26.7490   40.4520 C   0  0  0  0  0  0  0  0  0  0  0  0
   22.0394  -26.1647   43.7109 H   0  0  0  0  0  0  0  0  0  0  0  0
   21.4955  -27.9748   43.4709 H   0  0  0  0  0  0  0  0  0  0  0  0
   21.9018  -25.7911   41.3338 H   0  0  0  0  0  0  0  0  0  0  0  0
   23.1414  -28.8909   40.9469 H   0  0  0  0  0  0  0  0  0  0  0  0
   22.5030  -30.7090   39.3791 H   0  0  0  0  0  0  0  0  0  0  0  0
   21.1355  -30.3493   34.2668 H   0  0  0  0  0  0  0  0  0  0  0  0
   20.7030  -31.9508   32.4003 H   0  0  0  0  0  0  0  0  0  0  0  0
   19.5927  -34.1401   32.8626 H   0  0  0  0  0  0  0  0  0  0  0  0
   19.3290  -35.7410   35.3120 H   0  0  0  0  0  0  0  0  0  0  0  0
   19.6750  -33.1270   40.2080 H   0  0  0  0  0  0  0  0  0  0  0  0
   18.6370  -28.8732   38.8271 H   0  0  0  0  0  0  0  0  0  0  0  0
   18.8606  -26.6248   41.5389 H   0  0  0  0  0  0  0  0  0  0  0  0
   19.3238  -25.8038   40.0098 H   0  0  0  0  0  0  0  0  0  0  0  0
   18.0077  -27.0263   40.0098 H   0  0  0  0  0  0  0  0  0  0  0  0
  1  2  2  0
  2  3  1  0
  3  4  2  0
  4  5  1  0
  5  6  2  0
  6  7  1  0
  7  8  1  0
  8  9  1  0
  9 10  2  0
 10 11  1  0
 11 12  2  0
 12 13  1  0
 13 14  1  0
 13 15  2  0
 15 16  1  0
 16 17  2  0
 16 18  1  0
 18 19  1  0
  6 20  1  0
 20 21  2  0
 21 22  1  0
 21  3  1  0
 18  7  2  0
 15  9  1  0
  1 23  1  0
  1 24  1  0
  2 25  1  0
  4 26  1  0
  5 27  1  0
 10 28  1  0
 11 29  1  0
 12 30  1  0
 14 31  1  0
 19 32  1  0
 20 33  1  0
 22 34  1  0
 22 35  1  0
 22 36  1  0
M  END
>  <meeko>  (5) 
{"is_sidechain": [false], "free_energy": -8.553, "intermolecular_energy": -9.978, "internal_energy": -0.483}

$$$$
cand_040_out
     RDKit          3D

 36 38  0  0  0  0  0  0  0  0999 V2000
   20.4260  -31.1330   34.3590 C   0  0  0  0  0  0  0  0  0  0  0  0
   19.9280  -31.3860   35.5760 C   0  0  0  0  0  0  0  0  0  0  0  0
   20.5020  -30.8440   36.8160 C   0  0  0  0  0  0  0  0  0  0  0  0
   21.4080  -29.7760   36.7500 C   0  0  0  0  0  0  0  0  0  0  0  0
   21.9450  -29.2150   37.9130 C   0  0  0  0  0  0  0  0  0  0  0  0
   21.5780  -29.6980   39.1740 C   0  0  0  0  0  0  0  0  0  0  0  0
   22.1750  -29.1070   40.3910 C   0  0  0  0  0  0  0  0  0  0  0  0
   23.1240  -29.9330   40.9820 O   0  0  0  0  0  0  0  0  0  0  0  0
   23.7590  -29.5060   42.1200 C   0  0  0  0  0  0  0  0  0  0  0  0
   24.6920  -30.3750   42.6890 C   0  0  0  0  0  0  0  0  0  0  0  0
   25.3750  -30.0000   43.8480 C   0  0  0  0  0  0  0  0  0  0  0  0
   25.1240  -28.7590   44.4390 C   0  0  0  0  0  0  0  0  0  0  0  0
   24.1920  -27.8960   43.8690 C   0  0  0  0  0  0  0  0  0  0  0  0
   23.9960  -26.6970   44.4980 O   0  0  0  0  0  0  0  0  0  0  0  0
   23.5080  -28.2710   42.7090 C   0  0  0  0  0  0  0  0  0  0  0  0
   22.5210  -27.3940   42.0790 C   0  0  0  0  0  0  0  0  0  0  0  0
   22.2510  -26.2840   42.5350 O   0  0  0  0  0  0  0  0  0  0  0  0
   21.8460  -27.8880   40.8570 C   0  0  0  0  0  0  0  0  0  0  0  0
   20.9250  -27.0470   40.2620 O   0  0  0  0  0  0  0  0  0  0  0  0
   20.6720  -30.7670   39.2410 C   0  0  0  0  0  0  0  0  0  0  0  0
   20.1250  -31.3450   38.0770 C   0  0  0  0  0  0  0  0  0  0  0  0
   19.1490  -32.4810   38.2210 C   0  0  0  0  0  0  0  0  0  0  0  0
   19.9501  -31.5693   33.4684 H   0  0  0  0  0  0  0  0  0  0  0  0
   21.3110  -30.4888   34.2499 H   0  0  0  0  0  0  0  0  0  0  0  0
   19.0423  -32.0339   35.6519 H   0  0  0  0  0  0  0  0  0  0  0  0
   21.7007  -29.3735   35.7690 H   0  0  0  0  0  0  0  0  0  0  0  0
   22.6633  -28.3855   37.8357 H   0  0  0  0  0  0  0  0  0  0  0  0
   24.8887  -31.3529   42.2254 H   0  0  0  0  0  0  0  0  0  0  0  0
   26.1118  -30.6827   44.2964 H   0  0  0  0  0  0  0  0  0  0  0  0
   25.6615  -28.4646   45.3525 H   0  0  0  0  0  0  0  0  0  0  0  0
   23.2130  -26.5490   44.9920 H   0  0  0  0  0  0  0  0  0  0  0  0
   21.0940  -26.1260   40.2150 H   0  0  0  0  0  0  0  0  0  0  0  0
   20.3814  -31.1637   40.2250 H   0  0  0  0  0  0  0  0  0  0  0  0
   18.9758  -32.6825   39.2884 H   0  0  0  0  0  0  0  0  0  0  0  0
   18.1976  -32.2102   37.7399 H   0  0  0  0  0  0  0  0  0  0  0  0
   19.5601  -33.3808   37.7399 H   0  0  0  0  0  0  0  0  0  0  0  0
  1  2  2  0
  2  3  1  0
  3  4  2  0
  4  5  1  0
  5  6  2  0
  6  7  1  0
  7  8  1  0
  8  9  1  0
  9 10  2  0
 10 11  1  0
 11 12  2  0
 12 13  1  0
 13 14  1  0
 13 15  2  0
 15 16  1  0
 16 17  2  0
 16 18  1  0
 18 19  1  0
  6 20  1  0
 20 21  2  0
 21 22  1  0
 21  3  1  0
 18  7  2  0
 15  9  1  0
  1 23  1  0
  1 24  1  0
  2 25  1  0
  4 26  1  0
  5 27  1  0
 10 28  1  0
 11 29  1  0
 12 30  1  0
 14 31  1  0
 19 32  1  0
 20 33  1  0
 22 34  1  0
 22 35  1  0
 22 36  1  0
M  END
>  <meeko>  (6) 
{"is_sidechain": [false], "free_energy": -8.541, "intermolecular_energy": -10.043, "internal_energy": -0.403}

$$$$
cand_040_out
     RDKit          3D

 36 38  0  0  0  0  0  0  0  0999 V2000
   21.9970  -25.0190   45.5380 C   0  0  0  0  0  0  0  0  0  0  0  0
   22.7310  -26.0140   45.0250 C   0  0  0  0  0  0  0  0  0  0  0  0
   22.3820  -26.7220   43.7850 C   0  0  0  0  0  0  0  0  0  0  0  0
   21.1790  -26.4230   43.1320 C   0  0  0  0  0  0  0  0  0  0  0  0
   20.8340  -27.0540   41.9330 C   0  0  0  0  0  0  0  0  0  0  0  0
   21.6920  -27.9920   41.3470 C   0  0  0  0  0  0  0  0  0  0  0  0
   21.2980  -28.6660   40.0920 C   0  0  0  0  0  0  0  0  0  0  0  0
   20.8140  -29.9530   40.2980 O   0  0  0  0  0  0  0  0  0  0  0  0
   20.4110  -30.6920   39.2160 C   0  0  0  0  0  0  0  0  0  0  0  0
   19.9470  -31.9840   39.4690 C   0  0  0  0  0  0  0  0  0  0  0  0
   19.5200  -32.7890   38.4110 C   0  0  0  0  0  0  0  0  0  0  0  0
   19.5590  -32.3040   37.1010 C   0  0  0  0  0  0  0  0  0  0  0  0
   20.0230  -31.0150   36.8530 C   0  0  0  0  0  0  0  0  0  0  0  0
   20.0330  -30.6030   35.5480 O   0  0  0  0  0  0  0  0  0  0  0  0
   20.4500  -30.2090   37.9120 C   0  0  0  0  0  0  0  0  0  0  0  0
   20.9460  -28.8500   37.6940 C   0  0  0  0  0  0  0  0  0  0  0  0
   21.0020  -28.3490   36.5720 O   0  0  0  0  0  0  0  0  0  0  0  0
   21.3820  -28.0800   38.8820 C   0  0  0  0  0  0  0  0  0  0  0  0
   21.8350  -26.7930   38.6670 O   0  0  0  0  0  0  0  0  0  0  0  0
   22.8960  -28.2920   42.0010 C   0  0  0  0  0  0  0  0  0  0  0  0
   23.2550  -27.6670   43.2120 C   0  0  0  0  0  0  0  0  0  0  0  0
   24.5680  -28.0270   43.8530 C   0  0  0  0  0  0  0  0  0  0  0  0
   22.3115  -24.5280   46.4707 H   0  0  0  0  0  0  0  0  0  0  0  0
   21.0794  -24.6924   45.0268 H   0  0  0  0  0  0  0  0  0  0  0  0
   23.6432  -26.3177   45.5594 H   0  0  0  0  0  0  0  0  0  0  0  0
   20.4954  -25.6804   43.5694 H   0  0  0  0  0  0  0  0  0  0  0  0
   19.8785  -26.8108   41.4452 H   0  0  0  0  0  0  0  0  0  0  0  0
   19.9178  -32.3672   40.4997 H   0  0  0  0  0  0  0  0  0  0  0  0
   19.1523  -33.8066   38.6090 H   0  0  0  0  0  0  0  0  0  0  0  0
   19.2239  -32.9392   36.2678 H   0  0  0  0  0  0  0  0  0  0  0  0
   19.6800  -31.1570   34.8790 H   0  0  0  0  0  0  0  0  0  0  0  0
   21.9060  -26.4610   37.7930 H   0  0  0  0  0  0  0  0  0  0  0  0
   23.5769  -29.0335   41.5577 H   0  0  0  0  0  0  0  0  0  0  0  0
   24.4619  -27.9979   44.9475 H   0  0  0  0  0  0  0  0  0  0  0  0
   24.8635  -29.0393   43.5400 H   0  0  0  0  0  0  0  0  0  0  0  0
   25.3384  -27.3069   43.5400 H   0  0  0  0  0  0  0  0  0  0  0  0
  1  2  2  0
  2  3  1  0
  3  4  2  0
  4  5  1  0
  5  6  2  0
  6  7  1  0
  7  8  1  0
  8  9  1  0
  9 10  2  0
 10 11  1  0
 11 12  2  0
 12 13  1  0
 13 14  1  0
 13 15  2  0
 15 16  1  0
 16 17  2  0
 16 18  1  0
 18 19  1  0
  6 20  1  0
 20 21  2  0
 21 22  1  0
 21  3  1  0
 18  7  2  0
 15  9  1  0
  1 23  1  0
  1 24  1  0
  2 25  1  0
  4 26  1  0
  5 27  1  0
 10 28  1  0
 11 29  1  0
 12 30  1  0
 14 31  1  0
 19 32  1  0
 20 33  1  0
 22 34  1  0
 22 35  1  0
 22 36  1  0
M  END
>  <meeko>  (7) 
{"is_sidechain": [false], "free_energy": -8.495, "intermolecular_energy": -9.96, "internal_energy": -0.433}

$$$$
cand_040_out
     RDKit          3D

 36 38  0  0  0  0  0  0  0  0999 V2000
   20.6750  -30.9900   34.8800 C   0  0  0  0  0  0  0  0  0  0  0  0
   20.1640  -31.2670   36.0870 C   0  0  0  0  0  0  0  0  0  0  0  0
   20.6190  -30.6230   37.3270 C   0  0  0  0  0  0  0  0  0  0  0  0
   21.3650  -29.4370   37.2580 C   0  0  0  0  0  0  0  0  0  0  0  0
   21.7820  -28.7810   38.4200 C   0  0  0  0  0  0  0  0  0  0  0  0
   21.4530  -29.2850   39.6830 C   0  0  0  0  0  0  0  0  0  0  0  0
   21.9240  -28.5900   40.8990 C   0  0  0  0  0  0  0  0  0  0  0  0
   21.0810  -27.5550   41.2890 O   0  0  0  0  0  0  0  0  0  0  0  0
   21.4000  -26.8250   42.4050 C   0  0  0  0  0  0  0  0  0  0  0  0
   20.5350  -25.7850   42.7510 C   0  0  0  0  0  0  0  0  0  0  0  0
   20.8010  -25.0040   43.8780 C   0  0  0  0  0  0  0  0  0  0  0  0
   21.9310  -25.2610   44.6570 C   0  0  0  0  0  0  0  0  0  0  0  0
   22.7920  -26.2990   44.3090 C   0  0  0  0  0  0  0  0  0  0  0  0
   23.8790  -26.4960   45.1170 O   0  0  0  0  0  0  0  0  0  0  0  0
   22.5260  -27.0800   43.1820 C   0  0  0  0  0  0  0  0  0  0  0  0
   23.4050  -28.1790   42.7810 C   0  0  0  0  0  0  0  0  0  0  0  0
   24.4140  -28.4720   43.4200 O   0  0  0  0  0  0  0  0  0  0  0  0
   23.0390  -28.9420   41.5650 C   0  0  0  0  0  0  0  0  0  0  0  0
   23.8690  -29.9860   41.2040 O   0  0  0  0  0  0  0  0  0  0  0  0
   20.7070  -30.4720   39.7520 C   0  0  0  0  0  0  0  0  0  0  0  0
   20.2820  -31.1460   38.5900 C   0  0  0  0  0  0  0  0  0  0  0  0
   19.4750  -32.4080   38.7370 C   0  0  0  0  0  0  0  0  0  0  0  0
   20.2909  -31.5070   33.9883 H   0  0  0  0  0  0  0  0  0  0  0  0
   21.4787  -30.2455   34.7806 H   0  0  0  0  0  0  0  0  0  0  0  0
   19.3613  -32.0162   36.1534 H   0  0  0  0  0  0  0  0  0  0  0  0
   21.6257  -29.0171   36.2753 H   0  0  0  0  0  0  0  0  0  0  0  0
   22.3754  -27.8582   38.3404 H   0  0  0  0  0  0  0  0  0  0  0  0
   19.6454  -25.5811   42.1370 H   0  0  0  0  0  0  0  0  0  0  0  0
   20.1194  -24.1854   44.1523 H   0  0  0  0  0  0  0  0  0  0  0  0
   22.1408  -24.6449   45.5438 H   0  0  0  0  0  0  0  0  0  0  0  0
   23.8490  -27.1440   45.7930 H   0  0  0  0  0  0  0  0  0  0  0  0
   23.7720  -30.8250   41.6110 H   0  0  0  0  0  0  0  0  0  0  0  0
   20.4478  -30.8862   40.7375 H   0  0  0  0  0  0  0  0  0  0  0  0
   19.3330  -32.6301   39.8049 H   0  0  0  0  0  0  0  0  0  0  0  0
   18.4945  -32.2742   38.2567 H   0  0  0  0  0  0  0  0  0  0  0  0
   20.0078  -33.2420   38.2567 H   0  0  0  0  0  0  0  0  0  0  0  0
  1  2  2  0
  2  3  1  0
  3  4  2  0
  4  5  1  0
  5  6  2  0
  6  7  1  0
  7  8  1  0
  8  9  1  0
  9 10  2  0
 10 11  1  0
 11 12  2  0
 12 13  1  0
 13 14  1  0
 13 15  2  0
 15 16  1  0
 16 17  2  0
 16 18  1  0
 18 19  1  0
  6 20  1  0
 20 21  2  0
 21 22  1  0
 21  3  1  0
 18  7  2  0
 15  9  1  0
  1 23  1  0
  1 24  1  0
  2 25  1  0
  4 26  1  0
  5 27  1  0
 10 28  1  0
 11 29  1  0
 12 30  1  0
 14 31  1  0
 19 32  1  0
 20 33  1  0
 22 34  1  0
 22 35  1  0
 22 36  1  0
M  END
>  <meeko>  (8) 
{"is_sidechain": [false], "free_energy": -8.362, "intermolecular_energy": -9.777, "internal_energy": -0.459}

$$$$
cand_040_out
     RDKit          3D

 36 38  0  0  0  0  0  0  0  0999 V2000
   20.4540  -25.0780   42.2130 C   0  0  0  0  0  0  0  0  0  0  0  0
   20.4570  -26.4130   42.3100 C   0  0  0  0  0  0  0  0  0  0  0  0
   20.4420  -27.3110   41.1470 C   0  0  0  0  0  0  0  0  0  0  0  0
   19.3370  -27.3060   40.2830 C   0  0  0  0  0  0  0  0  0  0  0  0
   19.3080  -28.1230   39.1480 C   0  0  0  0  0  0  0  0  0  0  0  0
   20.3890  -28.9550   38.8390 C   0  0  0  0  0  0  0  0  0  0  0  0
   20.3280  -29.8290   37.6480 C   0  0  0  0  0  0  0  0  0  0  0  0
   19.8230  -31.0930   37.9300 O   0  0  0  0  0  0  0  0  0  0  0  0
   19.7110  -32.0050   36.9130 C   0  0  0  0  0  0  0  0  0  0  0  0
   19.2140  -33.2670   37.2450 C   0  0  0  0  0  0  0  0  0  0  0  0
   19.0740  -34.2420   36.2560 C   0  0  0  0  0  0  0  0  0  0  0  0
   19.4310  -33.9570   34.9350 C   0  0  0  0  0  0  0  0  0  0  0  0
   19.9270  -32.6980   34.6080 C   0  0  0  0  0  0  0  0  0  0  0  0
   20.2560  -32.4860   33.2970 O   0  0  0  0  0  0  0  0  0  0  0  0
   20.0670  -31.7220   35.5980 C   0  0  0  0  0  0  0  0  0  0  0  0
   20.5850  -30.3860   35.2970 C   0  0  0  0  0  0  0  0  0  0  0  0
   20.9130  -30.0580   34.1580 O   0  0  0  0  0  0  0  0  0  0  0  0
   20.7030  -29.4270   36.4190 C   0  0  0  0  0  0  0  0  0  0  0  0
   21.1800  -28.1650   36.1210 O   0  0  0  0  0  0  0  0  0  0  0  0
   21.4940  -28.9600   39.7030 C   0  0  0  0  0  0  0  0  0  0  0  0
   21.5370  -28.1460   40.8530 C   0  0  0  0  0  0  0  0  0  0  0  0
   22.7590  -28.1920   41.7300 C   0  0  0  0  0  0  0  0  0  0  0  0
   20.4658  -24.4604   43.1232 H   0  0  0  0  0  0  0  0  0  0  0  0
   20.4397  -24.5985   41.2231 H   0  0  0  0  0  0  0  0  0  0  0  0
   20.4715  -26.8619   43.3141 H   0  0  0  0  0  0  0  0  0  0  0  0
   18.4811  -26.6503   40.5011 H   0  0  0  0  0  0  0  0  0  0  0  0
   18.4255  -28.1110   38.4914 H   0  0  0  0  0  0  0  0  0  0  0  0
   18.9332  -33.4924   38.2844 H   0  0  0  0  0  0  0  0  0  0  0  0
   18.6821  -35.2362   36.5166 H   0  0  0  0  0  0  0  0  0  0  0  0
   19.3203  -34.7255   34.1558 H   0  0  0  0  0  0  0  0  0  0  0  0
   19.8550  -33.0010   32.6240 H   0  0  0  0  0  0  0  0  0  0  0  0
   20.6120  -27.5290   35.7300 H   0  0  0  0  0  0  0  0  0  0  0  0
   22.3482  -29.6154   39.4775 H   0  0  0  0  0  0  0  0  0  0  0  0
   22.4528  -28.1805   42.7865 H   0  0  0  0  0  0  0  0  0  0  0  0
   23.3250  -29.1121   41.5223 H   0  0  0  0  0  0  0  0  0  0  0  0
   23.3925  -27.3171   41.5223 H   0  0  0  0  0  0  0  0  0  0  0  0
  1  2  2  0
  2  3  1  0
  3  4  2  0
  4  5  1  0
  5  6  2  0
  6  7  1  0
  7  8  1  0
  8  9  1  0
  9 10  2  0
 10 11  1  0
 11 12  2  0
 12 13  1  0
 13 14  1  0
 13 15  2  0
 15 16  1  0
 16 17  2  0
 16 18  1  0
 18 19  1  0
  6 20  1  0
 20 21  2  0
 21 22  1  0
 21  3  1  0
 18  7  2  0
 15  9  1  0
  1 23  1  0
  1 24  1  0
  2 25  1  0
  4 26  1  0
  5 27  1  0
 10 28  1  0
 11 29  1  0
 12 30  1  0
 14 31  1  0
 19 32  1  0
 20 33  1  0
 22 34  1  0
 22 35  1  0
 22 36  1  0
M  END
>  <meeko>  (9) 
{"is_sidechain": [false], "free_energy": -7.878, "intermolecular_energy": -9.193, "internal_energy": -0.473}

$$$$
