cand_032_out
     RDKit          3D

 43 45  0  0  0  0  0  0  0  0999 V2000
   21.9460  -23.8850   42.5650 C   0  0  0  0  0  0  0  0  0  0  0  0
   21.8350  -25.1060   41.6620 C   0  0  0  0  0  0  0  0  0  0  0  0
   21.4610  -26.2950   42.4520 N   0  0  0  0  0  0  0  0  0  0  0  0
   20.0190  -26.4540   42.6880 C   0  0  0  0  0  0  0  0  0  0  0  0
   22.0270  -27.4870   41.9440 C   0  0  0  0  0  0  0  0  0  0  0  0
   21.4220  -28.1980   40.8890 C   0  0  0  0  0  0  0  0  0  0  0  0
   21.9800  -29.3790   40.3750 C   0  0  0  0  0  0  0  0  0  0  0  0
   21.3320  -30.1330   39.2820 C   0  0  0  0  0  0  0  0  0  0  0  0
   20.5650  -31.1980   39.7400 O   0  0  0  0  0  0  0  0  0  0  0  0
   19.9090  -31.9840   38.8270 C   0  0  0  0  0  0  0  0  0  0  0  0
   19.1390  -33.0320   39.3320 C   0  0  0  0  0  0  0  0  0  0  0  0
   18.4470  -33.8720   38.4570 C   0  0  0  0  0  0  0  0  0  0  0  0
   18.5230  -33.6630   37.0780 C   0  0  0  0  0  0  0  0  0  0  0  0
   19.2920  -32.6150   36.5780 C   0  0  0  0  0  0  0  0  0  0  0  0
   19.3240  -32.4670   35.2180 O   0  0  0  0  0  0  0  0  0  0  0  0
   19.9850  -31.7760   37.4530 C   0  0  0  0  0  0  0  0  0  0  0  0
   20.8040  -30.6630   36.9700 C   0  0  0  0  0  0  0  0  0  0  0  0
   20.9270  -30.4180   35.7710 O   0  0  0  0  0  0  0  0  0  0  0  0
   21.4910  -29.8280   37.9800 C   0  0  0  0  0  0  0  0  0  0  0  0
   22.2730  -28.7880   37.5110 O   0  0  0  0  0  0  0  0  0  0  0  0
   23.1590  -29.8610   40.9520 C   0  0  0  0  0  0  0  0  0  0  0  0
   23.7710  -29.1720   42.0010 C   0  0  0  0  0  0  0  0  0  0  0  0
   23.2170  -27.9820   42.5070 C   0  0  0  0  0  0  0  0  0  0  0  0
   23.9030  -27.2520   43.6360 C   0  0  0  0  0  0  0  0  0  0  0  0
   23.0680  -26.9200   44.6630 F   0  0  0  0  0  0  0  0  0  0  0  0
   24.8900  -28.0020   44.2220 F   0  0  0  0  0  0  0  0  0  0  0  0
   24.5260  -26.1010   43.2510 F   0  0  0  0  0  0  0  0  0  0  0  0
   21.9170  -24.2035   43.6175 H   0  0  0  0  0  0  0  0  0  0  0  0
   22.8950  -23.3660   42.3649 H   0  0  0  0  0  0  0  0  0  0  0  0
   21.1061  -23.2034   42.3649 H   0  0  0  0  0  0  0  0  0  0  0  0
   21.0666  -24.9226   40.8965 H   0  0  0  0  0  0  0  0  0  0  0  0
   22.8086  -25.2865   41.1830 H   0  0  0  0  0  0  0  0  0  0  0  0
   19.8248  -26.4754   43.7705 H   0  0  0  0  0  0  0  0  0  0  0  0
   19.4781  -25.6101   42.2351 H   0  0  0  0  0  0  0  0  0  0  0  0
   19.6749  -27.3955   42.2351 H   0  0  0  0  0  0  0  0  0  0  0  0
   20.4856  -27.8168   40.4556 H   0  0  0  0  0  0  0  0  0  0  0  0
   19.0770  -33.1964   40.4179 H   0  0  0  0  0  0  0  0  0  0  0  0
   17.8411  -34.6996   38.8544 H   0  0  0  0  0  0  0  0  0  0  0  0
   17.9771  -34.3242   36.3890 H   0  0  0  0  0  0  0  0  0  0  0  0
   19.3290  -31.6100   34.8390 H   0  0  0  0  0  0  0  0  0  0  0  0
   23.1010  -28.9680   37.1120 H   0  0  0  0  0  0  0  0  0  0  0  0
   23.6086  -30.7918   40.5759 H   0  0  0  0  0  0  0  0  0  0  0  0
   24.7004  -29.5657   42.4384 H   0  0  0  0  0  0  0  0  0  0  0  0
  1  2  1  0
  2  3  1  0
  3  4  1  0
  3  5  1  0
  5  6  2  0
  6  7  1  0
  7  8  1  0
  8  9  1  0
  9 10  1  0
 10 11  2  0
 11 12  1  0
 12 13  2  0
 13 14  1  0
 14 15  1  0
 14 16  2  0
 16 17  1  0
 17 18  2  0
 17 19  1  0
 19 20  1  0
  7 21  2  0
 21 22  1  0
 22 23  2  0
 23 24  1  0
 24 25  1  0
 24 26  1  0
 24 27  1  0
 23  5  1  0
 19  8  2  0
 16 10  1  0
  1 28  1  0
  1 29  1  0
  1 30  1  0
  2 31  1  0
  2 32  1  0
  4 33  1  0
  4 34  1  0
  4 35  1  0
  6 36  1  0
 11 37  1  0
 12 38  1  0
 13 39  1  0
 15 40  1  0
 20 41  1  0
 21 42  1  0
 22 43  1  0
M  END
>  <meeko>  (1) 
{"is_sidechain": [false], "free_energy": -9.499, "intermolecular_energy": -12.276, "internal_energy": -0.778}

$$$$
cand_032_out
     RDKit          3D

 43 45  0  0  0  0  0  0  0  0999 V2000
   19.7500  -24.0040   40.5820 C   0  0  0  0  0  0  0  0  0  0  0  0
   20.1390  -25.4120   40.1540 C   0  0  0  0  0  0  0  0  0  0  0  0
   20.4560  -26.2380   41.3360 N   0  0  0  0  0  0  0  0  0  0  0  0
   19.3170  -26.5150   42.2210 C   0  0  0  0  0  0  0  0  0  0  0  0
   21.1410  -27.4280   41.0010 C   0  0  0  0  0  0  0  0  0  0  0  0
   20.6130  -28.3450   40.0700 C   0  0  0  0  0  0  0  0  0  0  0  0
   21.2890  -29.5260   39.7280 C   0  0  0  0  0  0  0  0  0  0  0  0
   20.7230  -30.4940   38.7670 C   0  0  0  0  0  0  0  0  0  0  0  0
   20.1600  -31.6050   39.3860 O   0  0  0  0  0  0  0  0  0  0  0  0
   19.5980  -32.5850   38.6080 C   0  0  0  0  0  0  0  0  0  0  0  0
   19.0310  -33.6730   39.2710 C   0  0  0  0  0  0  0  0  0  0  0  0
   18.4450  -34.7070   38.5390 C   0  0  0  0  0  0  0  0  0  0  0  0
   18.4240  -34.6530   37.1430 C   0  0  0  0  0  0  0  0  0  0  0  0
   18.9900  -33.5650   36.4840 C   0  0  0  0  0  0  0  0  0  0  0  0
   18.9360  -33.5750   35.1170 O   0  0  0  0  0  0  0  0  0  0  0  0
   19.5770  -32.5310   37.2170 C   0  0  0  0  0  0  0  0  0  0  0  0
   20.1830  -31.3690   36.5640 C   0  0  0  0  0  0  0  0  0  0  0  0
   20.2110  -31.2510   35.3400 O   0  0  0  0  0  0  0  0  0  0  0  0
   20.7720  -30.3240   37.4320 C   0  0  0  0  0  0  0  0  0  0  0  0
   21.3540  -29.2380   36.8040 O   0  0  0  0  0  0  0  0  0  0  0  0
   22.5100  -29.7960   40.3530 C   0  0  0  0  0  0  0  0  0  0  0  0
   23.0480  -28.9010   41.2810 C   0  0  0  0  0  0  0  0  0  0  0  0
   22.3740  -27.7120   41.6140 C   0  0  0  0  0  0  0  0  0  0  0  0
   22.9820  -26.7570   42.6140 C   0  0  0  0  0  0  0  0  0  0  0  0
   23.1300  -25.4870   42.1390 F   0  0  0  0  0  0  0  0  0  0  0  0
   22.2120  -26.6180   43.7390 F   0  0  0  0  0  0  0  0  0  0  0  0
   24.2040  -27.1460   43.0760 F   0  0  0  0  0  0  0  0  0  0  0  0
   19.7340  -23.9459   41.6803 H   0  0  0  0  0  0  0  0  0  0  0  0
   20.4832  -23.2851   40.1875 H   0  0  0  0  0  0  0  0  0  0  0  0
   18.7518  -23.7635   40.1875 H   0  0  0  0  0  0  0  0  0  0  0  0
   19.3018  -25.8690   39.6060 H   0  0  0  0  0  0  0  0  0  0  0  0
   21.0273  -25.3568   39.5076 H   0  0  0  0  0  0  0  0  0  0  0  0
   19.6399  -26.4365   43.2696 H   0  0  0  0  0  0  0  0  0  0  0  0
   18.5168  -25.7853   42.0281 H   0  0  0  0  0  0  0  0  0  0  0  0
   18.9413  -27.5307   42.0281 H   0  0  0  0  0  0  0  0  0  0  0  0
   19.6432  -28.1286   39.5980 H   0  0  0  0  0  0  0  0  0  0  0  0
   19.0456  -33.7163   40.3701 H   0  0  0  0  0  0  0  0  0  0  0  0
   17.9990  -35.5658   39.0621 H   0  0  0  0  0  0  0  0  0  0  0  0
   17.9617  -35.4677   36.5663 H   0  0  0  0  0  0  0  0  0  0  0  0
   19.2960  -32.8610   34.6280 H   0  0  0  0  0  0  0  0  0  0  0  0
   21.9260  -29.3710   36.0750 H   0  0  0  0  0  0  0  0  0  0  0  0
   23.0524  -30.7221   40.1118 H   0  0  0  0  0  0  0  0  0  0  0  0
   24.0125  -29.1293   41.7581 H   0  0  0  0  0  0  0  0  0  0  0  0
  1  2  1  0
  2  3  1  0
  3  4  1  0
  3  5  1  0
  5  6  2  0
  6  7  1  0
  7  8  1  0
  8  9  1  0
  9 10  1  0
 10 11  2  0
 11 12  1  0
 12 13  2  0
 13 14  1  0
 14 15  1  0
 14 16  2  0
 16 17  1  0
 17 18  2  0
 17 19  1  0
 19 20  1  0
  7 21  2  0
 21 22  1  0
 22 23  2  0
 23 24  1  0
 24 25  1  0
 24 26  1  0
 24 27  1  0
 23  5  1  0
 19  8  2  0
 16 10  1  0
  1 28  1  0
  1 29  1  0
  1 30  1  0
  2 31  1  0
  2 32  1  0
  4 33  1  0
  4 34  1  0
  4 35  1  0
  6 36  1  0
 11 37  1  0
 12 38  1  0
 13 39  1  0
 15 40  1  0
 20 41  1  0
 21 42  1  0
 22 43  1  0
M  END
>  <meeko>  (2) 
{"is_sidechain": [false], "free_energy": -9.289, "intermolecular_energy": -12.092, "internal_energy": -0.69}

$$$$
cand_032_out
     RDKit          3D

 43 45  0  0  0  0  0  0  0  0999 V2000
   24.0910  -28.7510   45.1660 C   0  0  0  0  0  0  0  0  0  0  0  0
   23.0380  -28.3230   44.1530 C   0  0  0  0  0  0  0  0  0  0  0  0
   23.6170  -28.2900   42.7950 N   0  0  0  0  0  0  0  0  0  0  0  0
   24.4310  -29.4600   42.4400 C   0  0  0  0  0  0  0  0  0  0  0  0
   22.6520  -28.0200   41.7970 C   0  0  0  0  0  0  0  0  0  0  0  0
   22.1500  -29.0390   40.9640 C   0  0  0  0  0  0  0  0  0  0  0  0
   21.1880  -28.7810   39.9760 C   0  0  0  0  0  0  0  0  0  0  0  0
   20.6790  -29.8490   39.0900 C   0  0  0  0  0  0  0  0  0  0  0  0
   20.0410  -30.8700   39.7860 O   0  0  0  0  0  0  0  0  0  0  0  0
   19.5210  -31.9280   39.0830 C   0  0  0  0  0  0  0  0  0  0  0  0
   18.8770  -32.9220   39.8200 C   0  0  0  0  0  0  0  0  0  0  0  0
   18.3270  -34.0270   39.1660 C   0  0  0  0  0  0  0  0  0  0  0  0
   18.4200  -34.1370   37.7770 C   0  0  0  0  0  0  0  0  0  0  0  0
   19.0630  -33.1420   37.0450 C   0  0  0  0  0  0  0  0  0  0  0  0
   19.1190  -33.3120   35.6880 O   0  0  0  0  0  0  0  0  0  0  0  0
   19.6130  -32.0370   37.6990 C   0  0  0  0  0  0  0  0  0  0  0  0
   20.2970  -30.9700   36.9670 C   0  0  0  0  0  0  0  0  0  0  0  0
   20.4260  -30.9970   35.7450 O   0  0  0  0  0  0  0  0  0  0  0  0
   20.8390  -29.8380   37.7530 C   0  0  0  0  0  0  0  0  0  0  0  0
   21.4950  -28.8420   37.0530 O   0  0  0  0  0  0  0  0  0  0  0  0
   20.7410  -27.4670   39.8120 C   0  0  0  0  0  0  0  0  0  0  0  0
   21.2290  -26.4430   40.6260 C   0  0  0  0  0  0  0  0  0  0  0  0
   22.1850  -26.7050   41.6250 C   0  0  0  0  0  0  0  0  0  0  0  0
   22.6900  -25.5810   42.4970 C   0  0  0  0  0  0  0  0  0  0  0  0
   24.0400  -25.6040   42.6940 F   0  0  0  0  0  0  0  0  0  0  0  0
   22.4410  -24.3460   41.9570 F   0  0  0  0  0  0  0  0  0  0  0  0
   22.1150  -25.5400   43.7330 F   0  0  0  0  0  0  0  0  0  0  0  0
   23.7054  -28.5943   46.1842 H   0  0  0  0  0  0  0  0  0  0  0  0
   24.3260  -29.8160   45.0228 H   0  0  0  0  0  0  0  0  0  0  0  0
   25.0024  -28.1519   45.0228 H   0  0  0  0  0  0  0  0  0  0  0  0
   22.2024  -29.0381   44.1740 H   0  0  0  0  0  0  0  0  0  0  0  0
   22.6790  -27.3164   44.4136 H   0  0  0  0  0  0  0  0  0  0  0  0
   24.7773  -29.9578   43.3577 H   0  0  0  0  0  0  0  0  0  0  0  0
   23.8254  -30.1621   41.8482 H   0  0  0  0  0  0  0  0  0  0  0  0
   25.2999  -29.1363   41.8482 H   0  0  0  0  0  0  0  0  0  0  0  0
   22.5228  -30.0660   41.0918 H   0  0  0  0  0  0  0  0  0  0  0  0
   18.8024  -32.8358   40.9141 H   0  0  0  0  0  0  0  0  0  0  0  0
   17.8197  -34.8119   39.7462 H   0  0  0  0  0  0  0  0  0  0  0  0
   17.9865  -35.0073   37.2625 H   0  0  0  0  0  0  0  0  0  0  0  0
   19.7430  -32.8330   35.1810 H   0  0  0  0  0  0  0  0  0  0  0  0
   22.4300  -28.8060   37.0560 H   0  0  0  0  0  0  0  0  0  0  0  0
   19.9977  -27.2374   39.0343 H   0  0  0  0  0  0  0  0  0  0  0  0
   20.8608  -25.4162   40.4844 H   0  0  0  0  0  0  0  0  0  0  0  0
  1  2  1  0
  2  3  1  0
  3  4  1  0
  3  5  1  0
  5  6  2  0
  6  7  1  0
  7  8  1  0
  8  9  1  0
  9 10  1  0
 10 11  2  0
 11 12  1  0
 12 13  2  0
 13 14  1  0
 14 15  1  0
 14 16  2  0
 16 17  1  0
 17 18  2  0
 17 19  1  0
 19 20  1  0
  7 21  2  0
 21 22  1  0
 22 23  2  0
 23 24  1  0
 24 25  1  0
 24 26  1  0
 24 27  1  0
 23  5  1  0
 19  8  2  0
 16 10  1  0
  1 28  1  0
  1 29  1  0
  1 30  1  0
  2 31  1  0
  2 32  1  0
  4 33  1  0
  4 34  1  0
  4 35  1  0
  6 36  1  0
 11 37  1  0
 12 38  1  0
 13 39  1  0
 15 40  1  0
 20 41  1  0
 21 42  1  0
 22 43  1  0
M  END
>  <meeko>  (3) 
{"is_sidechain": [false], "free_energy": -8.589, "intermolecular_energy": -11.867, "internal_energy": -0.011}

$$$$
cand_032_out
     RDKit          3D

 43 45  0  0  0  0  0  0  0  0999 V2000
   24.5770  -28.5650   44.2140 C   0  0  0  0  0  0  0  0  0  0  0  0
   23.1850  -28.0450   44.5450 C   0  0  0  0  0  0  0  0  0  0  0  0
   23.0190  -26.6680   44.0410 N   0  0  0  0  0  0  0  0  0  0  0  0
   24.2310  -26.0690   43.4660 C   0  0  0  0  0  0  0  0  0  0  0  0
   21.9200  -26.5380   43.1600 C   0  0  0  0  0  0  0  0  0  0  0  0
   21.8030  -27.3400   42.0070 C   0  0  0  0  0  0  0  0  0  0  0  0
   20.7140  -27.2220   41.1310 C   0  0  0  0  0  0  0  0  0  0  0  0
   20.6030  -28.0500   39.9120 C   0  0  0  0  0  0  0  0  0  0  0  0
   20.2300  -29.3620   40.1820 O   0  0  0  0  0  0  0  0  0  0  0  0
   20.0920  -30.2400   39.1370 C   0  0  0  0  0  0  0  0  0  0  0  0
   19.7010  -31.5420   39.4520 C   0  0  0  0  0  0  0  0  0  0  0  0
   19.5440  -32.4870   38.4360 C   0  0  0  0  0  0  0  0  0  0  0  0
   19.7760  -32.1310   37.1060 C   0  0  0  0  0  0  0  0  0  0  0  0
   20.1650  -30.8300   36.7950 C   0  0  0  0  0  0  0  0  0  0  0  0
   20.3760  -30.5480   35.4730 O   0  0  0  0  0  0  0  0  0  0  0  0
   20.3220  -29.8850   37.8120 C   0  0  0  0  0  0  0  0  0  0  0  0
   20.7290  -28.5080   37.5290 C   0  0  0  0  0  0  0  0  0  0  0  0
   20.9580  -28.1180   36.3850 O   0  0  0  0  0  0  0  0  0  0  0  0
   20.8600  -27.5820   38.6770 C   0  0  0  0  0  0  0  0  0  0  0  0
   21.2580  -26.2870   38.3980 O   0  0  0  0  0  0  0  0  0  0  0  0
   19.7360  -26.2630   41.4140 C   0  0  0  0  0  0  0  0  0  0  0  0
   19.8370  -25.4570   42.5490 C   0  0  0  0  0  0  0  0  0  0  0  0
   20.9240  -25.5850   43.4330 C   0  0  0  0  0  0  0  0  0  0  0  0
   21.0050  -24.7070   44.6590 C   0  0  0  0  0  0  0  0  0  0  0  0
   21.6370  -23.5170   44.4410 F   0  0  0  0  0  0  0  0  0  0  0  0
   19.7690  -24.3590   45.1370 F   0  0  0  0  0  0  0  0  0  0  0  0
   21.6330  -25.2940   45.7180 F   0  0  0  0  0  0  0  0  0  0  0  0
   25.1235  -28.7691   45.1466 H   0  0  0  0  0  0  0  0  0  0  0  0
   24.4924  -29.4921   43.6281 H   0  0  0  0  0  0  0  0  0  0  0  0
   25.1210  -27.8094   43.6281 H   0  0  0  0  0  0  0  0  0  0  0  0
   22.4332  -28.6963   44.0753 H   0  0  0  0  0  0  0  0  0  0  0  0
   23.0538  -28.0444   45.6371 H   0  0  0  0  0  0  0  0  0  0  0  0
   24.8974  -25.7397   44.2769 H   0  0  0  0  0  0  0  0  0  0  0  0
   24.7495  -26.8146   42.8453 H   0  0  0  0  0  0  0  0  0  0  0  0
   23.9536  -25.2042   42.8453 H   0  0  0  0  0  0  0  0  0  0  0  0
   22.5877  -28.0791   41.7880 H   0  0  0  0  0  0  0  0  0  0  0  0
   19.5167  -31.8235   40.4993 H   0  0  0  0  0  0  0  0  0  0  0  0
   19.2370  -33.5138   38.6839 H   0  0  0  0  0  0  0  0  0  0  0  0
   19.6520  -32.8757   36.3060 H   0  0  0  0  0  0  0  0  0  0  0  0
   20.9710  -31.0700   34.9710 H   0  0  0  0  0  0  0  0  0  0  0  0
   22.1660  -26.0920   38.2790 H   0  0  0  0  0  0  0  0  0  0  0  0
   18.8787  -26.1428   40.7353 H   0  0  0  0  0  0  0  0  0  0  0  0
   19.0555  -24.7109   42.7553 H   0  0  0  0  0  0  0  0  0  0  0  0
  1  2  1  0
  2  3  1  0
  3  4  1  0
  3  5  1  0
  5  6  2  0
  6  7  1  0
  7  8  1  0
  8  9  1  0
  9 10  1  0
 10 11  2  0
 11 12  1  0
 12 13  2  0
 13 14  1  0
 14 15  1  0
 14 16  2  0
 16 17  1  0
 17 18  2  0
 17 19  1  0
 19 20  1  0
  7 21  2  0
 21 22  1  0
 22 23  2  0
 23 24  1  0
 24 25  1  0
 24 26  1  0
 24 27  1  0
 23  5  1  0
 19  8  2  0
 16 10  1  0
  1 28  1  0
  1 29  1  0
  1 30  1  0
  2 31  1  0
  2 32  1  0
  4 33  1  0
  4 34  1  0
  4 35  1  0
  6 36  1  0
 11 37  1  0
 12 38  1  0
 13 39  1  0
 15 40  1  0
 20 41  1  0
 21 42  1  0
 22 43  1  0
M  END
>  <meeko>  (4) 
{"is_sidechain": [false], "free_energy": -8.372, "intermolecular_energy": -11.134, "internal_energy": -0.464}

$$$$
cand_032_out
     RDKit          3D

 43 45  0  0  0  0  0  0  0  0999 V2000
   19.5130  -24.2360   39.7110 C   0  0  0  0  0  0  0  0  0  0  0  0
   19.8540  -25.6860   39.3930 C   0  0  0  0  0  0  0  0  0  0  0  0
   20.1060  -26.4380   40.6380 N   0  0  0  0  0  0  0  0  0  0  0  0
   18.9200  -26.6670   41.4750 C   0  0  0  0  0  0  0  0  0  0  0  0
   20.8110  -27.6430   40.4140 C   0  0  0  0  0  0  0  0  0  0  0  0
   20.3520  -28.6030   39.4900 C   0  0  0  0  0  0  0  0  0  0  0  0
   21.0490  -29.7980   39.2570 C   0  0  0  0  0  0  0  0  0  0  0  0
   20.5550  -30.8120   38.3020 C   0  0  0  0  0  0  0  0  0  0  0  0
   20.8910  -30.5220   36.9840 O   0  0  0  0  0  0  0  0  0  0  0  0
   20.4930  -31.3830   35.9930 C   0  0  0  0  0  0  0  0  0  0  0  0
   20.8650  -31.0620   34.6880 C   0  0  0  0  0  0  0  0  0  0  0  0
   20.4890  -31.8940   33.6310 C   0  0  0  0  0  0  0  0  0  0  0  0
   19.7430  -33.0480   33.8800 C   0  0  0  0  0  0  0  0  0  0  0  0
   19.3740  -33.3670   35.1850 C   0  0  0  0  0  0  0  0  0  0  0  0
   18.6440  -34.5110   35.3580 O   0  0  0  0  0  0  0  0  0  0  0  0
   19.7500  -32.5330   36.2410 C   0  0  0  0  0  0  0  0  0  0  0  0
   19.3830  -32.8310   37.6270 C   0  0  0  0  0  0  0  0  0  0  0  0
   18.7220  -33.8240   37.9260 O   0  0  0  0  0  0  0  0  0  0  0  0
   19.8370  -31.8880   38.6740 C   0  0  0  0  0  0  0  0  0  0  0  0
   19.4720  -32.1720   39.9770 O   0  0  0  0  0  0  0  0  0  0  0  0
   22.2180  -30.0370   39.9860 C   0  0  0  0  0  0  0  0  0  0  0  0
   22.6850  -29.1000   40.9080 C   0  0  0  0  0  0  0  0  0  0  0  0
   21.9930  -27.8960   41.1320 C   0  0  0  0  0  0  0  0  0  0  0  0
   22.5250  -26.8950   42.1290 C   0  0  0  0  0  0  0  0  0  0  0  0
   23.7630  -27.2060   42.6120 F   0  0  0  0  0  0  0  0  0  0  0  0
   22.6700  -25.6440   41.5890 F   0  0  0  0  0  0  0  0  0  0  0  0
   21.7170  -26.7120   43.2120 F   0  0  0  0  0  0  0  0  0  0  0  0
   19.4805  -24.0977   40.8018 H   0  0  0  0  0  0  0  0  0  0  0  0
   20.2804  -23.5759   39.2804 H   0  0  0  0  0  0  0  0  0  0  0  0
   18.5318  -23.9872   39.2804 H   0  0  0  0  0  0  0  0  0  0  0  0
   19.0127  -26.1469   38.8546 H   0  0  0  0  0  0  0  0  0  0  0  0
   20.7600  -25.7121   38.7697 H   0  0  0  0  0  0  0  0  0  0  0  0
   19.2041  -26.6122   42.5363 H   0  0  0  0  0  0  0  0  0  0  0  0
   18.1638  -25.8983   41.2576 H   0  0  0  0  0  0  0  0  0  0  0  0
   18.5044  -27.6620   41.2576 H   0  0  0  0  0  0  0  0  0  0  0  0
   19.4214  -28.4100   38.9361 H   0  0  0  0  0  0  0  0  0  0  0  0
   21.4542  -30.1542   34.4911 H   0  0  0  0  0  0  0  0  0  0  0  0
   20.7808  -31.6400   32.6013 H   0  0  0  0  0  0  0  0  0  0  0  0
   19.4474  -33.7036   33.0477 H   0  0  0  0  0  0  0  0  0  0  0  0
   17.9430  -34.7140   34.7700 H   0  0  0  0  0  0  0  0  0  0  0  0
   18.5690  -32.2860   40.1970 H   0  0  0  0  0  0  0  0  0  0  0  0
   22.7748  -30.9729   39.8310 H   0  0  0  0  0  0  0  0  0  0  0  0
   23.6088  -29.3059   41.4686 H   0  0  0  0  0  0  0  0  0  0  0  0
  1  2  1  0
  2  3  1  0
  3  4  1  0
  3  5  1  0
  5  6  2  0
  6  7  1  0
  7  8  1  0
  8  9  1  0
  9 10  1  0
 10 11  2  0
 11 12  1  0
 12 13  2  0
 13 14  1  0
 14 15  1  0
 14 16  2  0
 16 17  1  0
 17 18  2  0
 17 19  1  0
 19 20  1  0
  7 21  2  0
 21 22  1  0
 22 23  2  0
 23 24  1  0
 24 25  1  0
 24 26  1  0
 24 27  1  0
 23  5  1  0
 19  8  2  0
 16 10  1  0
  1 28  1  0
  1 29  1  0
  1 30  1  0
  2 31  1  0
  2 32  1  0
  4 33  1  0
  4 34  1  0
  4 35  1  0
  6 36  1  0
 11 37  1  0
 12 38  1  0
 13 39  1  0
 15 40  1  0
 20 41  1  0
 21 42  1  0
 22 43  1  0
M  END
>  <meeko>  (5) 
{"is_sidechain": [false], "free_energy": -8.293, "intermolecular_energy": -10.806, "internal_energy": -0.689}

$$$$
cand_032_out
     RDKit          3D

 43 45  0  0  0  0  0  0  0  0999 V2000
   22.2980  -24.1860   42.3830 C   0  0  0  0  0  0  0  0  0  0  0  0
   23.1870  -25.3700   42.7400 C   0  0  0  0  0  0  0  0  0  0  0  0
   22.3630  -26.5570   43.0380 N   0  0  0  0  0  0  0  0  0  0  0  0
   20.9450  -26.2780   43.3010 C   0  0  0  0  0  0  0  0  0  0  0  0
   22.5100  -27.5790   42.0710 C   0  0  0  0  0  0  0  0  0  0  0  0
   21.8880  -27.4930   40.8100 C   0  0  0  0  0  0  0  0  0  0  0  0
   22.0330  -28.4990   39.8430 C   0  0  0  0  0  0  0  0  0  0  0  0
   21.3630  -28.4160   38.5280 C   0  0  0  0  0  0  0  0  0  0  0  0
   21.3630  -29.6260   37.8440 O   0  0  0  0  0  0  0  0  0  0  0  0
   20.7740  -29.6890   36.6060 C   0  0  0  0  0  0  0  0  0  0  0  0
   20.7830  -30.9260   35.9630 C   0  0  0  0  0  0  0  0  0  0  0  0
   20.2020  -31.0590   34.7000 C   0  0  0  0  0  0  0  0  0  0  0  0
   19.6110  -29.9540   34.0810 C   0  0  0  0  0  0  0  0  0  0  0  0
   19.6030  -28.7210   34.7270 C   0  0  0  0  0  0  0  0  0  0  0  0
   19.0080  -27.6810   34.0660 O   0  0  0  0  0  0  0  0  0  0  0  0
   20.1840  -28.5890   35.9910 C   0  0  0  0  0  0  0  0  0  0  0  0
   20.1970  -27.3110   36.7040 C   0  0  0  0  0  0  0  0  0  0  0  0
   19.7040  -26.2920   36.2240 O   0  0  0  0  0  0  0  0  0  0  0  0
   20.8320  -27.2790   38.0420 C   0  0  0  0  0  0  0  0  0  0  0  0
   20.8500  -26.0630   38.7000 O   0  0  0  0  0  0  0  0  0  0  0  0
   22.8020  -29.6220   40.1640 C   0  0  0  0  0  0  0  0  0  0  0  0
   23.4220  -29.7260   41.4100 C   0  0  0  0  0  0  0  0  0  0  0  0
   23.2860  -28.7110   42.3740 C   0  0  0  0  0  0  0  0  0  0  0  0
   23.9750  -28.8450   43.7110 C   0  0  0  0  0  0  0  0  0  0  0  0
   23.1190  -28.8140   44.7740 F   0  0  0  0  0  0  0  0  0  0  0  0
   24.6430  -30.0350   43.8400 F   0  0  0  0  0  0  0  0  0  0  0  0
   24.9200  -27.8900   43.9430 F   0  0  0  0  0  0  0  0  0  0  0  0
   21.9380  -23.7066   43.3053 H   0  0  0  0  0  0  0  0  0  0  0  0
   22.8752  -23.4589   41.7930 H   0  0  0  0  0  0  0  0  0  0  0  0
   21.4387  -24.5374   41.7930 H   0  0  0  0  0  0  0  0  0  0  0  0
   23.8519  -25.5932   41.8926 H   0  0  0  0  0  0  0  0  0  0  0  0
   23.7825  -25.1153   43.6291 H   0  0  0  0  0  0  0  0  0  0  0  0
   20.7732  -26.2442   44.3870 H   0  0  0  0  0  0  0  0  0  0  0  0
   20.6733  -25.3092   42.8565 H   0  0  0  0  0  0  0  0  0  0  0  0
   20.3266  -27.0717   42.8565 H   0  0  0  0  0  0  0  0  0  0  0  0
   21.2713  -26.6124   40.5770 H   0  0  0  0  0  0  0  0  0  0  0  0
   21.2472  -31.7963   36.4499 H   0  0  0  0  0  0  0  0  0  0  0  0
   20.2095  -32.0345   34.1918 H   0  0  0  0  0  0  0  0  0  0  0  0
   19.1535  -30.0584   33.0861 H   0  0  0  0  0  0  0  0  0  0  0  0
   19.0250  -27.6510   33.1290 H   0  0  0  0  0  0  0  0  0  0  0  0
   20.6250  -25.2790   38.2420 H   0  0  0  0  0  0  0  0  0  0  0  0
   22.9193  -30.4308   39.4277 H   0  0  0  0  0  0  0  0  0  0  0  0
   24.0263  -30.6155   41.6417 H   0  0  0  0  0  0  0  0  0  0  0  0
  1  2  1  0
  2  3  1  0
  3  4  1  0
  3  5  1  0
  5  6  2  0
  6  7  1  0
  7  8  1  0
  8  9  1  0
  9 10  1  0
 10 11  2  0
 11 12  1  0
 12 13  2  0
 13 14  1  0
 14 15  1  0
 14 16  2  0
 16 17  1  0
 17 18  2  0
 17 19  1  0
 19 20  1  0
  7 21  2  0
 21 22  1  0
 22 23  2  0
 23 24  1  0
 24 25  1  0
 24 26  1  0
 24 27  1  0
 23  5  1  0
 19  8  2  0
 16 10  1  0
  1 28  1  0
  1 29  1  0
  1 30  1  0
  2 31  1  0
  2 32  1  0
  4 33  1  0
  4 34  1  0
  4 35  1  0
  6 36  1  0
 11 37  1  0
 12 38  1  0
 13 39  1  0
 15 40  1  0
 20 41  1  0
 21 42  1  0
 22 43  1  0
M  END
>  <meeko>  (6) 
{"is_sidechain": [false], "free_energy": -8.102, "intermolecular_energy": -11.108, "internal_energy": -0.14}

$$$$
cand_032_out
     RDKit          3D

 43 45  0  0  0  0  0  0  0  0999 V2000
   18.5840  -34.0570   39.4030 C   0  0  0  0  0  0  0  0  0  0  0  0
   19.7130  -33.1900   38.8650 C   0  0  0  0  0  0  0  0  0  0  0  0
   19.2090  -31.8450   38.5250 N   0  0  0  0  0  0  0  0  0  0  0  0
   18.0450  -31.4040   39.3050 C   0  0  0  0  0  0  0  0  0  0  0  0
   20.2270  -30.8630   38.5300 C   0  0  0  0  0  0  0  0  0  0  0  0
   20.6680  -30.2680   39.7290 C   0  0  0  0  0  0  0  0  0  0  0  0
   21.6820  -29.2980   39.7440 C   0  0  0  0  0  0  0  0  0  0  0  0
   22.1290  -28.6620   41.0000 C   0  0  0  0  0  0  0  0  0  0  0  0
   21.3550  -27.5630   41.3550 O   0  0  0  0  0  0  0  0  0  0  0  0
   21.6640  -26.8770   42.5030 C   0  0  0  0  0  0  0  0  0  0  0  0
   20.8510  -25.7900   42.8280 C   0  0  0  0  0  0  0  0  0  0  0  0
   21.1120  -25.0470   43.9820 C   0  0  0  0  0  0  0  0  0  0  0  0
   22.1830  -25.3910   44.8100 C   0  0  0  0  0  0  0  0  0  0  0  0
   22.9900  -26.4770   44.4820 C   0  0  0  0  0  0  0  0  0  0  0  0
   24.0220  -26.7590   45.3360 O   0  0  0  0  0  0  0  0  0  0  0  0
   22.7300  -27.2200   43.3280 C   0  0  0  0  0  0  0  0  0  0  0  0
   23.5540  -28.3680   42.9470 C   0  0  0  0  0  0  0  0  0  0  0  0
   24.5180  -28.7290   43.6200 O   0  0  0  0  0  0  0  0  0  0  0  0
   23.1890  -29.0930   41.7090 C   0  0  0  0  0  0  0  0  0  0  0  0
   23.9840  -30.1680   41.3520 O   0  0  0  0  0  0  0  0  0  0  0  0
   22.2430  -28.9060   38.5250 C   0  0  0  0  0  0  0  0  0  0  0  0
   21.8160  -29.4820   37.3270 C   0  0  0  0  0  0  0  0  0  0  0  0
   20.8080  -30.4630   37.3140 C   0  0  0  0  0  0  0  0  0  0  0  0
   20.3700  -31.0760   36.0060 C   0  0  0  0  0  0  0  0  0  0  0  0
   19.3050  -30.4440   35.4340 F   0  0  0  0  0  0  0  0  0  0  0  0
   21.3520  -31.0310   35.0510 F   0  0  0  0  0  0  0  0  0  0  0  0
   20.0380  -32.3950   36.0980 F   0  0  0  0  0  0  0  0  0  0  0  0
   18.6028  -34.0426   40.5027 H   0  0  0  0  0  0  0  0  0  0  0  0
   17.6195  -33.6652   39.0476 H   0  0  0  0  0  0  0  0  0  0  0  0
   18.7136  -35.0899   39.0476 H   0  0  0  0  0  0  0  0  0  0  0  0
   20.4980  -33.1005   39.6303 H   0  0  0  0  0  0  0  0  0  0  0  0
   20.1225  -33.6584   37.9579 H   0  0  0  0  0  0  0  0  0  0  0  0
   18.2694  -31.4890   40.3785 H   0  0  0  0  0  0  0  0  0  0  0  0
   17.8152  -30.3565   39.0603 H   0  0  0  0  0  0  0  0  0  0  0  0
   17.1788  -32.0363   39.0603 H   0  0  0  0  0  0  0  0  0  0  0  0
   20.2047  -30.5723   40.6791 H   0  0  0  0  0  0  0  0  0  0  0  0
   20.0067  -25.5190   42.1770 H   0  0  0  0  0  0  0  0  0  0  0  0
   20.4728  -24.1894   44.2390 H   0  0  0  0  0  0  0  0  0  0  0  0
   22.3882  -24.8057   45.7184 H   0  0  0  0  0  0  0  0  0  0  0  0
   23.9620  -27.4910   45.9180 H   0  0  0  0  0  0  0  0  0  0  0  0
   24.8370  -30.2630   41.7240 H   0  0  0  0  0  0  0  0  0  0  0  0
   23.0286  -28.1362   38.5095 H   0  0  0  0  0  0  0  0  0  0  0  0
   22.2747  -29.1639   36.3792 H   0  0  0  0  0  0  0  0  0  0  0  0
  1  2  1  0
  2  3  1  0
  3  4  1  0
  3  5  1  0
  5  6  2  0
  6  7  1  0
  7  8  1  0
  8  9  1  0
  9 10  1  0
 10 11  2  0
 11 12  1  0
 12 13  2  0
 13 14  1  0
 14 15  1  0
 14 16  2  0
 16 17  1  0
 17 18  2  0
 17 19  1  0
 19 20  1  0
  7 21  2  0
 21 22  1  0
 22 23  2  0
 23 24  1  0
 24 25  1  0
 24 26  1  0
 24 27  1  0
 23  5  1  0
 19  8  2  0
 16 10  1  0
  1 28  1  0
  1 29  1  0
  1 30  1  0
  2 31  1  0
  2 32  1  0
  4 33  1  0
  4 34  1  0
  4 35  1  0
  6 36  1  0
 11 37  1  0
 12 38  1  0
 13 39  1  0
 15 40  1  0
 20 41  1  0
 21 42  1  0
 22 43  1  0
M  END
>  <meeko>  (7) 
{"is_sidechain": [false], "free_energy": -8.037, "intermolecular_energy": -10.9, "internal_energy": -0.264}

$$$$
cand_032_out
     RDKit          3D

 43 45  0  0  0  0  0  0  0  0999 V2000
   18.7850  -35.4010   38.7910 C   0  0  0  0  0  0  0  0  0  0  0  0
   19.5990  -34.1220   38.9290 C   0  0  0  0  0  0  0  0  0  0  0  0
   18.8130  -32.9630   38.4620 N   0  0  0  0  0  0  0  0  0  0  0  0
   17.7600  -32.5160   39.3830 C   0  0  0  0  0  0  0  0  0  0  0  0
   19.6270  -31.8800   38.0560 C   0  0  0  0  0  0  0  0  0  0  0  0
   20.0450  -30.8910   38.9680 C   0  0  0  0  0  0  0  0  0  0  0  0
   20.8570  -29.8170   38.5750 C   0  0  0  0  0  0  0  0  0  0  0  0
   21.2780  -28.7710   39.5300 C   0  0  0  0  0  0  0  0  0  0  0  0
   22.1860  -29.2350   40.4750 O   0  0  0  0  0  0  0  0  0  0  0  0
   22.6580  -28.3640   41.4250 C   0  0  0  0  0  0  0  0  0  0  0  0
   23.5790  -28.8680   42.3440 C   0  0  0  0  0  0  0  0  0  0  0  0
   24.0980  -28.0360   43.3380 C   0  0  0  0  0  0  0  0  0  0  0  0
   23.6960  -26.7000   43.4130 C   0  0  0  0  0  0  0  0  0  0  0  0
   22.7780  -26.2000   42.4930 C   0  0  0  0  0  0  0  0  0  0  0  0
   22.4280  -24.8840   42.6240 O   0  0  0  0  0  0  0  0  0  0  0  0
   22.2590  -27.0330   41.4990 C   0  0  0  0  0  0  0  0  0  0  0  0
   21.2920  -26.5480   40.5140 C   0  0  0  0  0  0  0  0  0  0  0  0
   20.8850  -25.3880   40.5170 O   0  0  0  0  0  0  0  0  0  0  0  0
   20.8090  -27.5090   39.4960 C   0  0  0  0  0  0  0  0  0  0  0  0
   19.8850  -27.0430   38.5790 O   0  0  0  0  0  0  0  0  0  0  0  0
   21.2360  -29.7290   37.2320 C   0  0  0  0  0  0  0  0  0  0  0  0
   20.8290  -30.6970   36.3130 C   0  0  0  0  0  0  0  0  0  0  0  0
   20.0250  -31.7800   36.7110 C   0  0  0  0  0  0  0  0  0  0  0  0
   19.6050  -32.8180   35.6980 C   0  0  0  0  0  0  0  0  0  0  0  0
   20.3640  -33.9520   35.7290 F   0  0  0  0  0  0  0  0  0  0  0  0
   18.3220  -33.2560   35.8980 F   0  0  0  0  0  0  0  0  0  0  0  0
   19.6220  -32.3720   34.4100 F   0  0  0  0  0  0  0  0  0  0  0  0
   18.5385  -35.7884   39.7906 H   0  0  0  0  0  0  0  0  0  0  0  0
   17.8565  -35.1872   38.2414 H   0  0  0  0  0  0  0  0  0  0  0  0
   19.3719  -36.1516   38.2414 H   0  0  0  0  0  0  0  0  0  0  0  0
   19.8691  -33.9757   39.9852 H   0  0  0  0  0  0  0  0  0  0  0  0
   20.5086  -34.2083   38.3165 H   0  0  0  0  0  0  0  0  0  0  0  0
   18.0958  -32.6585   40.4208 H   0  0  0  0  0  0  0  0  0  0  0  0
   17.5487  -31.4506   39.2090 H   0  0  0  0  0  0  0  0  0  0  0  0
   16.8468  -33.1041   39.2090 H   0  0  0  0  0  0  0  0  0  0  0  0
   19.7255  -30.9631   40.0181 H   0  0  0  0  0  0  0  0  0  0  0  0
   23.8959  -29.9197   42.2855 H   0  0  0  0  0  0  0  0  0  0  0  0
   24.8241  -28.4328   44.0628 H   0  0  0  0  0  0  0  0  0  0  0  0
   24.1037  -26.0447   44.1969 H   0  0  0  0  0  0  0  0  0  0  0  0
   23.0220  -24.2120   42.3520 H   0  0  0  0  0  0  0  0  0  0  0  0
   20.0740  -27.0820   37.6630 H   0  0  0  0  0  0  0  0  0  0  0  0
   21.8612  -28.8884   36.8966 H   0  0  0  0  0  0  0  0  0  0  0  0
   21.1416  -30.6117   35.2618 H   0  0  0  0  0  0  0  0  0  0  0  0
  1  2  1  0
  2  3  1  0
  3  4  1  0
  3  5  1  0
  5  6  2  0
  6  7  1  0
  7  8  1  0
  8  9  1  0
  9 10  1  0
 10 11  2  0
 11 12  1  0
 12 13  2  0
 13 14  1  0
 14 15  1  0
 14 16  2  0
 16 17  1  0
 17 18  2  0
 17 19  1  0
 19 20  1  0
  7 21  2  0
 21 22  1  0
 22 23  2  0
 23 24  1  0
 24 25  1  0
 24 26  1  0
 24 27  1  0
 23  5  1  0
 19  8  2  0
 16 10  1  0
  1 28  1  0
  1 29  1  0
  1 30  1  0
  2 31  1  0
  2 32  1  0
  4 33  1  0
  4 34  1  0
  4 35  1  0
  6 36  1  0
 11 37  1  0
 12 38  1  0
 13 39  1  0
 15 40  1  0
 20 41  1  0
 21 42  1  0
 22 43  1  0
M  END
>  <meeko>  (8) 
{"is_sidechain": [false], "free_energy": -7.998, "intermolecular_energy": -10.631, "internal_energy": -0.483}

$$$$
cand_032_out
     RDKit          3D

 43 45  0  0  0  0  0  0  0  0999 V2000
   21.5670  -23.4970   42.7560 C   0  0  0  0  0  0  0  0  0  0  0  0
   22.4230  -24.7000   42.3840 C   0  0  0  0  0  0  0  0  0  0  0  0
   21.8110  -25.9420   42.8950 N   0  0  0  0  0  0  0  0  0  0  0  0
   20.3600  -25.8740   43.1130 C   0  0  0  0  0  0  0  0  0  0  0  0
   22.1560  -27.0770   42.1250 C   0  0  0  0  0  0  0  0  0  0  0  0
   21.5780  -27.3130   40.8620 C   0  0  0  0  0  0  0  0  0  0  0  0
   21.9190  -28.4330   40.0890 C   0  0  0  0  0  0  0  0  0  0  0  0
   21.2960  -28.6890   38.7740 C   0  0  0  0  0  0  0  0  0  0  0  0
   20.6540  -27.5710   38.2530 O   0  0  0  0  0  0  0  0  0  0  0  0
   20.0310  -27.6710   37.0350 C   0  0  0  0  0  0  0  0  0  0  0  0
   19.4120  -26.5210   36.5450 C   0  0  0  0  0  0  0  0  0  0  0  0
   18.7570  -26.5540   35.3110 C   0  0  0  0  0  0  0  0  0  0  0  0
   18.7230  -27.7370   34.5680 C   0  0  0  0  0  0  0  0  0  0  0  0
   19.3430  -28.8830   35.0610 C   0  0  0  0  0  0  0  0  0  0  0  0
   19.2710  -30.0060   34.2830 O   0  0  0  0  0  0  0  0  0  0  0  0
   19.9970  -28.8490   36.2950 C   0  0  0  0  0  0  0  0  0  0  0  0
   20.6610  -30.0300   36.8480 C   0  0  0  0  0  0  0  0  0  0  0  0
   20.6690  -31.1090   36.2590 O   0  0  0  0  0  0  0  0  0  0  0  0
   21.3330  -29.8870   38.1600 C   0  0  0  0  0  0  0  0  0  0  0  0
   21.9450  -31.0130   38.6800 O   0  0  0  0  0  0  0  0  0  0  0  0
   22.8450  -29.3420   40.6110 C   0  0  0  0  0  0  0  0  0  0  0  0
   23.4260  -29.1260   41.8610 C   0  0  0  0  0  0  0  0  0  0  0  0
   23.0920  -27.9970   42.6300 C   0  0  0  0  0  0  0  0  0  0  0  0
   23.7410  -27.7830   43.9760 C   0  0  0  0  0  0  0  0  0  0  0  0
   22.8510  -27.7040   45.0080 F   0  0  0  0  0  0  0  0  0  0  0  0
   24.5810  -28.8090   44.3220 F   0  0  0  0  0  0  0  0  0  0  0  0
   24.5170  -26.6640   44.0430 F   0  0  0  0  0  0  0  0  0  0  0  0
   21.5078  -23.4138   43.8512 H   0  0  0  0  0  0  0  0  0  0  0  0
   22.0192  -22.5834   42.3428 H   0  0  0  0  0  0  0  0  0  0  0  0
   20.5556  -23.6248   42.3428 H   0  0  0  0  0  0  0  0  0  0  0  0
   22.5070  -24.7608   41.2889 H   0  0  0  0  0  0  0  0  0  0  0  0
   23.4204  -24.5818   42.8326 H   0  0  0  0  0  0  0  0  0  0  0  0
   20.1515  -25.8642   44.1930 H   0  0  0  0  0  0  0  0  0  0  0  0
   19.9630  -24.9563   42.6546 H   0  0  0  0  0  0  0  0  0  0  0  0
   19.8789  -26.7506   42.6546 H   0  0  0  0  0  0  0  0  0  0  0  0
   20.8384  -26.5989   40.4709 H   0  0  0  0  0  0  0  0  0  0  0  0
   19.4394  -25.5893   37.1292 H   0  0  0  0  0  0  0  0  0  0  0  0
   18.2677  -25.6479   34.9242 H   0  0  0  0  0  0  0  0  0  0  0  0
   18.2080  -27.7633   33.5964 H   0  0  0  0  0  0  0  0  0  0  0  0
   18.9130  -29.9560   33.4190 H   0  0  0  0  0  0  0  0  0  0  0  0
   22.0080  -31.1260   39.6070 H   0  0  0  0  0  0  0  0  0  0  0  0
   23.1178  -30.2357   40.0305 H   0  0  0  0  0  0  0  0  0  0  0  0
   24.1566  -29.8500   42.2510 H   0  0  0  0  0  0  0  0  0  0  0  0
  1  2  1  0
  2  3  1  0
  3  4  1  0
  3  5  1  0
  5  6  2  0
  6  7  1  0
  7  8  1  0
  8  9  1  0
  9 10  1  0
 10 11  2  0
 11 12  1  0
 12 13  2  0
 13 14  1  0
 14 15  1  0
 14 16  2  0
 16 17  1  0
 17 18  2  0
 17 19  1  0
 19 20  1  0
  7 21  2  0
 21 22  1  0
 22 23  2  0
 23 24  1  0
 24 25  1  0
 24 26  1  0
 24 27  1  0
 23  5  1  0
 19  8  2  0
 16 10  1  0
  1 28  1  0
  1 29  1  0
  1 30  1  0
  2 31  1  0
  2 32  1  0
  4 33  1  0
  4 34  1  0
  4 35  1  0
  6 36  1  0
 11 37  1  0
 12 38  1  0
 13 39  1  0
 15 40  1  0
 20 41  1  0
 21 42  1  0
 22 43  1  0
M  END
>  <meeko>  (9) 
{"is_sidechain": [false], "free_energy": -7.975, "intermolecular_energy": -10.999, "internal_energy": -0.085}

$$$$
