cand_039_out
     RDKit          3D

 41 43  0  0  0  0  0  0  0  0999 V2000
   23.0920  -26.6170   44.8660 C   0  0  0  0  0  0  0  0  0  0  0  0
   23.8410  -26.5640   43.5420 C   0  0  0  0  0  0  0  0  0  0  0  0
   23.2300  -27.4830   42.5100 C   0  0  0  0  0  0  0  0  0  0  0  0
   22.1720  -26.9870   41.7280 C   0  0  0  0  0  0  0  0  0  0  0  0
   21.5650  -27.7770   40.7490 C   0  0  0  0  0  0  0  0  0  0  0  0
   21.9920  -29.0890   40.5250 C   0  0  0  0  0  0  0  0  0  0  0  0
   21.3510  -29.9030   39.4700 C   0  0  0  0  0  0  0  0  0  0  0  0
   20.5530  -30.9190   39.9830 O   0  0  0  0  0  0  0  0  0  0  0  0
   19.8970  -31.7520   39.1120 C   0  0  0  0  0  0  0  0  0  0  0  0
   19.0950  -32.7470   39.6700 C   0  0  0  0  0  0  0  0  0  0  0  0
   18.4020  -33.6310   38.8390 C   0  0  0  0  0  0  0  0  0  0  0  0
   18.5120  -33.5180   37.4510 C   0  0  0  0  0  0  0  0  0  0  0  0
   19.3140  -32.5240   36.8970 C   0  0  0  0  0  0  0  0  0  0  0  0
   19.3760  -32.4700   35.5320 O   0  0  0  0  0  0  0  0  0  0  0  0
   20.0060  -31.6390   37.7290 C   0  0  0  0  0  0  0  0  0  0  0  0
   20.8590  -30.5810   37.1880 C   0  0  0  0  0  0  0  0  0  0  0  0
   21.0120  -30.4230   35.9790 O   0  0  0  0  0  0  0  0  0  0  0  0
   21.5440  -29.6910   38.1550 C   0  0  0  0  0  0  0  0  0  0  0  0
   22.3570  -28.7030   37.6330 O   0  0  0  0  0  0  0  0  0  0  0  0
   23.0580  -29.5790   41.2920 C   0  0  0  0  0  0  0  0  0  0  0  0
   23.6880  -28.7950   42.2800 C   0  0  0  0  0  0  0  0  0  0  0  0
   24.8130  -29.4250   43.0700 C   0  0  0  0  0  0  0  0  0  0  0  0
   24.7340  -30.9450   43.0590 C   0  0  0  0  0  0  0  0  0  0  0  0
   23.8114  -26.5661   45.6966 H   0  0  0  0  0  0  0  0  0  0  0  0
   22.3982  -25.7657   44.9291 H   0  0  0  0  0  0  0  0  0  0  0  0
   22.5250  -27.5575   44.9291 H   0  0  0  0  0  0  0  0  0  0  0  0
   23.8144  -25.5329   43.1598 H   0  0  0  0  0  0  0  0  0  0  0  0
   24.8746  -26.8944   43.7224 H   0  0  0  0  0  0  0  0  0  0  0  0
   21.8161  -25.9589   41.8900 H   0  0  0  0  0  0  0  0  0  0  0  0
   20.7423  -27.3623   40.1480 H   0  0  0  0  0  0  0  0  0  0  0  0
   19.0081  -32.8358   40.7630 H   0  0  0  0  0  0  0  0  0  0  0  0
   17.7694  -34.4165   39.2781 H   0  0  0  0  0  0  0  0  0  0  0  0
   17.9657  -34.2134   36.7967 H   0  0  0  0  0  0  0  0  0  0  0  0
   18.6140  -32.2430   35.0370 H   0  0  0  0  0  0  0  0  0  0  0  0
   23.0570  -28.3520   38.1480 H   0  0  0  0  0  0  0  0  0  0  0  0
   23.4134  -30.6053   41.1180 H   0  0  0  0  0  0  0  0  0  0  0  0
   25.7727  -29.1158   42.6302 H   0  0  0  0  0  0  0  0  0  0  0  0
   24.7271  -29.0872   44.1133 H   0  0  0  0  0  0  0  0  0  0  0  0
   24.7146  -31.3186   44.0934 H   0  0  0  0  0  0  0  0  0  0  0  0
   23.8182  -31.2608   42.5378 H   0  0  0  0  0  0  0  0  0  0  0  0
   25.6121  -31.3540   42.5378 H   0  0  0  0  0  0  0  0  0  0  0  0
  1  2  1  0
  2  3  1  0
  3  4  2  0
  4  5  1  0
  5  6  2  0
  6  7  1  0
  7  8  1  0
  8  9  1  0
  9 10  2  0
 10 11  1  0
 11 12  2  0
 12 13  1  0
 13 14  1  0
 13 15  2  0
 15 16  1  0
 16 17  2  0
 16 18  1  0
 18 19  1  0
  6 20  1  0
 20 21  2  0
 21 22  1  0
 22 23  1  0
 21  3  1  0
 18  7  2  0
 15  9  1  0
  1 24  1  0
  1 25  1  0
  1 26  1  0
  2 27  1  0
  2 28  1  0
  4 29  1  0
  5 30  1  0
 10 31  1  0
 11 32  1  0
 12 33  1  0
 14 34  1  0
 19 35  1  0
 20 36  1  0
 22 37  1  0
 22 38  1  0
 23 39  1  0
 23 40  1  0
 23 41  1  0
M  END
>  <meeko>  (1) 
{"is_sidechain": [false], "free_energy": -9.333, "intermolecular_energy": -11.516, "internal_energy": -0.583}

$$$$
cand_039_out
     RDKit          3D

 41 43  0  0  0  0  0  0  0  0999 V2000
   23.5120  -27.8430   44.8390 C   0  0  0  0  0  0  0  0  0  0  0  0
   23.8320  -27.2320   43.4820 C   0  0  0  0  0  0  0  0  0  0  0  0
   23.1190  -27.9490   42.3580 C   0  0  0  0  0  0  0  0  0  0  0  0
   23.6760  -29.1480   41.8820 C   0  0  0  0  0  0  0  0  0  0  0  0
   23.0660  -29.8680   40.8510 C   0  0  0  0  0  0  0  0  0  0  0  0
   21.8850  -29.4090   40.2620 C   0  0  0  0  0  0  0  0  0  0  0  0
   21.2430  -30.1950   39.1870 C   0  0  0  0  0  0  0  0  0  0  0  0
   20.5120  -31.2740   39.6700 O   0  0  0  0  0  0  0  0  0  0  0  0
   19.8640  -32.0900   38.7780 C   0  0  0  0  0  0  0  0  0  0  0  0
   19.1300  -33.1510   39.3070 C   0  0  0  0  0  0  0  0  0  0  0  0
   18.4470  -34.0210   38.4530 C   0  0  0  0  0  0  0  0  0  0  0  0
   18.4990  -33.8280   37.0710 C   0  0  0  0  0  0  0  0  0  0  0  0
   19.2320  -32.7680   36.5450 C   0  0  0  0  0  0  0  0  0  0  0  0
   19.2410  -32.6380   35.1840 O   0  0  0  0  0  0  0  0  0  0  0  0
   19.9150  -31.8970   37.4000 C   0  0  0  0  0  0  0  0  0  0  0  0
   20.6970  -30.7710   36.8900 C   0  0  0  0  0  0  0  0  0  0  0  0
   20.7960  -30.5410   35.6860 O   0  0  0  0  0  0  0  0  0  0  0  0
   21.3760  -29.9030   37.8800 C   0  0  0  0  0  0  0  0  0  0  0  0
   22.1230  -28.8510   37.3850 O   0  0  0  0  0  0  0  0  0  0  0  0
   21.3190  -28.2220   40.7490 C   0  0  0  0  0  0  0  0  0  0  0  0
   21.9150  -27.4850   41.7920 C   0  0  0  0  0  0  0  0  0  0  0  0
   21.2390  -26.2040   42.2290 C   0  0  0  0  0  0  0  0  0  0  0  0
   19.7410  -26.3910   42.4230 C   0  0  0  0  0  0  0  0  0  0  0  0
   23.8639  -27.1712   45.6358 H   0  0  0  0  0  0  0  0  0  0  0  0
   22.4248  -27.9830   44.9309 H   0  0  0  0  0  0  0  0  0  0  0  0
   24.0161  -28.8164   44.9309 H   0  0  0  0  0  0  0  0  0  0  0  0
   23.5206  -26.1770   43.4848 H   0  0  0  0  0  0  0  0  0  0  0  0
   24.9149  -27.3257   43.3130 H   0  0  0  0  0  0  0  0  0  0  0  0
   24.6076  -29.5262   42.3282 H   0  0  0  0  0  0  0  0  0  0  0  0
   23.5205  -30.8060   40.4995 H   0  0  0  0  0  0  0  0  0  0  0  0
   19.0886  -33.3030   40.3957 H   0  0  0  0  0  0  0  0  0  0  0  0
   17.8681  -34.8584   38.8697 H   0  0  0  0  0  0  0  0  0  0  0  0
   17.9613  -34.5128   36.3988 H   0  0  0  0  0  0  0  0  0  0  0  0
   18.6870  -33.1800   34.6580 H   0  0  0  0  0  0  0  0  0  0  0  0
   21.7310  -28.2330   36.7990 H   0  0  0  0  0  0  0  0  0  0  0  0
   20.3823  -27.8554   40.3039 H   0  0  0  0  0  0  0  0  0  0  0  0
   21.6825  -25.8743   43.1801 H   0  0  0  0  0  0  0  0  0  0  0  0
   21.3896  -25.4525   41.4400 H   0  0  0  0  0  0  0  0  0  0  0  0
   19.5113  -26.4197   43.4984 H   0  0  0  0  0  0  0  0  0  0  0  0
   19.2033  -25.5530   41.9554 H   0  0  0  0  0  0  0  0  0  0  0  0
   19.4258  -27.3355   41.9554 H   0  0  0  0  0  0  0  0  0  0  0  0
  1  2  1  0
  2  3  1  0
  3  4  2  0
  4  5  1  0
  5  6  2  0
  6  7  1  0
  7  8  1  0
  8  9  1  0
  9 10  2  0
 10 11  1  0
 11 12  2  0
 12 13  1  0
 13 14  1  0
 13 15  2  0
 15 16  1  0
 16 17  2  0
 16 18  1  0
 18 19  1  0
  6 20  1  0
 20 21  2  0
 21 22  1  0
 22 23  1  0
 21  3  1  0
 18  7  2  0
 15  9  1  0
  1 24  1  0
  1 25  1  0
  1 26  1  0
  2 27  1  0
  2 28  1  0
  4 29  1  0
  5 30  1  0
 10 31  1  0
 11 32  1  0
 12 33  1  0
 14 34  1  0
 19 35  1  0
 20 36  1  0
 22 37  1  0
 22 38  1  0
 23 39  1  0
 23 40  1  0
 23 41  1  0
M  END
>  <meeko>  (2) 
{"is_sidechain": [false], "free_energy": -9.285, "intermolecular_energy": -11.371, "internal_energy": -0.668}

$$$$
cand_039_out
     RDKit          3D

 41 43  0  0  0  0  0  0  0  0999 V2000
   20.4510  -31.6230   34.7660 C   0  0  0  0  0  0  0  0  0  0  0  0
   19.8290  -31.9850   36.1070 C   0  0  0  0  0  0  0  0  0  0  0  0
   20.2850  -31.0570   37.2100 C   0  0  0  0  0  0  0  0  0  0  0  0
   20.8350  -29.8160   36.8440 C   0  0  0  0  0  0  0  0  0  0  0  0
   21.2700  -28.9060   37.8090 C   0  0  0  0  0  0  0  0  0  0  0  0
   21.1730  -29.2080   39.1700 C   0  0  0  0  0  0  0  0  0  0  0  0
   21.6190  -28.2230   40.1790 C   0  0  0  0  0  0  0  0  0  0  0  0
   22.4820  -28.7690   41.1220 O   0  0  0  0  0  0  0  0  0  0  0  0
   22.9730  -27.9630   42.1170 C   0  0  0  0  0  0  0  0  0  0  0  0
   23.8480  -28.5490   43.0320 C   0  0  0  0  0  0  0  0  0  0  0  0
   24.3820  -27.7840   44.0720 C   0  0  0  0  0  0  0  0  0  0  0  0
   24.0410  -26.4360   44.1970 C   0  0  0  0  0  0  0  0  0  0  0  0
   23.1670  -25.8540   43.2820 C   0  0  0  0  0  0  0  0  0  0  0  0
   22.8760  -24.5300   43.4620 O   0  0  0  0  0  0  0  0  0  0  0  0
   22.6340  -26.6190   42.2410 C   0  0  0  0  0  0  0  0  0  0  0  0
   21.7120  -26.0480   41.2590 C   0  0  0  0  0  0  0  0  0  0  0  0
   21.3590  -24.8710   41.3060 O   0  0  0  0  0  0  0  0  0  0  0  0
   21.2090  -26.9410   40.1900 C   0  0  0  0  0  0  0  0  0  0  0  0
   20.3290  -26.3940   39.2750 O   0  0  0  0  0  0  0  0  0  0  0  0
   20.6080  -30.4380   39.5380 C   0  0  0  0  0  0  0  0  0  0  0  0
   20.1580  -31.3680   38.5780 C   0  0  0  0  0  0  0  0  0  0  0  0
   19.5860  -32.6760   39.0760 C   0  0  0  0  0  0  0  0  0  0  0  0
   18.1070  -32.5570   39.4150 C   0  0  0  0  0  0  0  0  0  0  0  0
   21.3906  -31.0761   34.9333 H   0  0  0  0  0  0  0  0  0  0  0  0
   20.6577  -32.5419   34.1977 H   0  0  0  0  0  0  0  0  0  0  0  0
   19.7542  -30.9894   34.1977 H   0  0  0  0  0  0  0  0  0  0  0  0
   18.7343  -31.9222   36.0196 H   0  0  0  0  0  0  0  0  0  0  0  0
   20.1488  -33.0050   36.3663 H   0  0  0  0  0  0  0  0  0  0  0  0
   20.9241  -29.5576   35.7785 H   0  0  0  0  0  0  0  0  0  0  0  0
   21.6937  -27.9408   37.4947 H   0  0  0  0  0  0  0  0  0  0  0  0
   24.1169  -29.6112   42.9348 H   0  0  0  0  0  0  0  0  0  0  0  0
   25.0725  -28.2447   44.7938 H   0  0  0  0  0  0  0  0  0  0  0  0
   24.4617  -25.8348   45.0165 H   0  0  0  0  0  0  0  0  0  0  0  0
   23.5660  -23.9140   43.6110 H   0  0  0  0  0  0  0  0  0  0  0  0
   19.4220  -26.3040   39.4940 H   0  0  0  0  0  0  0  0  0  0  0  0
   20.5132  -30.6842   40.6059 H   0  0  0  0  0  0  0  0  0  0  0  0
   19.7112  -33.4394   38.2940 H   0  0  0  0  0  0  0  0  0  0  0  0
   20.1243  -32.9558   39.9936 H   0  0  0  0  0  0  0  0  0  0  0  0
   17.9809  -32.5469   40.5077 H   0  0  0  0  0  0  0  0  0  0  0  0
   17.7076  -31.6238   38.9912 H   0  0  0  0  0  0  0  0  0  0  0  0
   17.5635  -33.4143   38.9912 H   0  0  0  0  0  0  0  0  0  0  0  0
  1  2  1  0
  2  3  1  0
  3  4  2  0
  4  5  1  0
  5  6  2  0
  6  7  1  0
  7  8  1  0
  8  9  1  0
  9 10  2  0
 10 11  1  0
 11 12  2  0
 12 13  1  0
 13 14  1  0
 13 15  2  0
 15 16  1  0
 16 17  2  0
 16 18  1  0
 18 19  1  0
  6 20  1  0
 20 21  2  0
 21 22  1  0
 22 23  1  0
 21  3  1  0
 18  7  2  0
 15  9  1  0
  1 24  1  0
  1 25  1  0
  1 26  1  0
  2 27  1  0
  2 28  1  0
  4 29  1  0
  5 30  1  0
 10 31  1  0
 11 32  1  0
 12 33  1  0
 14 34  1  0
 19 35  1  0
 20 36  1  0
 22 37  1  0
 22 38  1  0
 23 39  1  0
 23 40  1  0
 23 41  1  0
M  END
>  <meeko>  (3) 
{"is_sidechain": [false], "free_energy": -8.786, "intermolecular_energy": -11.052, "internal_energy": -0.372}

$$$$
cand_039_out
     RDKit          3D

 41 43  0  0  0  0  0  0  0  0999 V2000
   19.6970  -26.3520   42.5300 C   0  0  0  0  0  0  0  0  0  0  0  0
   20.5670  -26.3140   41.2820 C   0  0  0  0  0  0  0  0  0  0  0  0
   20.4250  -27.5710   40.4550 C   0  0  0  0  0  0  0  0  0  0  0  0
   19.2590  -27.7290   39.6880 C   0  0  0  0  0  0  0  0  0  0  0  0
   19.0640  -28.8610   38.8940 C   0  0  0  0  0  0  0  0  0  0  0  0
   20.0260  -29.8730   38.8460 C   0  0  0  0  0  0  0  0  0  0  0  0
   19.8120  -31.0550   37.9830 C   0  0  0  0  0  0  0  0  0  0  0  0
   20.1860  -30.8340   36.6630 O   0  0  0  0  0  0  0  0  0  0  0  0
   20.0400  -31.8500   35.7530 C   0  0  0  0  0  0  0  0  0  0  0  0
   20.4410  -31.5900   34.4430 C   0  0  0  0  0  0  0  0  0  0  0  0
   20.3170  -32.5810   33.4660 C   0  0  0  0  0  0  0  0  0  0  0  0
   19.7920  -33.8310   33.8000 C   0  0  0  0  0  0  0  0  0  0  0  0
   19.3910  -34.0880   35.1080 C   0  0  0  0  0  0  0  0  0  0  0  0
   18.8860  -35.3320   35.3670 O   0  0  0  0  0  0  0  0  0  0  0  0
   19.5170  -33.0960   36.0860 C   0  0  0  0  0  0  0  0  0  0  0  0
   19.1080  -33.3240   37.4720 C   0  0  0  0  0  0  0  0  0  0  0  0
   18.6300  -34.3950   37.8410 O   0  0  0  0  0  0  0  0  0  0  0  0
   19.2890  -32.2110   38.4320 C   0  0  0  0  0  0  0  0  0  0  0  0
   18.8870  -32.4340   39.7360 O   0  0  0  0  0  0  0  0  0  0  0  0
   21.1990  -29.7090   39.5970 C   0  0  0  0  0  0  0  0  0  0  0  0
   21.4170  -28.5710   40.4000 C   0  0  0  0  0  0  0  0  0  0  0  0
   22.7030  -28.5000   41.1920 C   0  0  0  0  0  0  0  0  0  0  0  0
   23.4300  -29.8370   41.2150 C   0  0  0  0  0  0  0  0  0  0  0  0
   20.3371  -26.3240   43.4242 H   0  0  0  0  0  0  0  0  0  0  0  0
   19.0233  -25.4824   42.5340 H   0  0  0  0  0  0  0  0  0  0  0  0
   19.1017  -27.2770   42.5340 H   0  0  0  0  0  0  0  0  0  0  0  0
   20.2710  -25.4500   40.6688 H   0  0  0  0  0  0  0  0  0  0  0  0
   21.6165  -26.2340   41.6015 H   0  0  0  0  0  0  0  0  0  0  0  0
   18.4857  -26.9471   39.7132 H   0  0  0  0  0  0  0  0  0  0  0  0
   18.1432  -28.9570   38.3000 H   0  0  0  0  0  0  0  0  0  0  0  0
   20.8546  -30.6055   34.1791 H   0  0  0  0  0  0  0  0  0  0  0  0
   20.6333  -32.3763   32.4325 H   0  0  0  0  0  0  0  0  0  0  0  0
   19.6954  -34.6114   33.0308 H   0  0  0  0  0  0  0  0  0  0  0  0
   17.9620  -35.4500   35.4710 H   0  0  0  0  0  0  0  0  0  0  0  0
   18.0100  -32.7110   39.9150 H   0  0  0  0  0  0  0  0  0  0  0  0
   21.9715  -30.4912   39.5583 H   0  0  0  0  0  0  0  0  0  0  0  0
   23.3605  -27.7455   40.7356 H   0  0  0  0  0  0  0  0  0  0  0  0
   22.4507  -28.2313   42.2284 H   0  0  0  0  0  0  0  0  0  0  0  0
   23.5976  -30.1453   42.2575 H   0  0  0  0  0  0  0  0  0  0  0  0
   22.8198  -30.5950   40.7021 H   0  0  0  0  0  0  0  0  0  0  0  0
   24.3979  -29.7369   40.7021 H   0  0  0  0  0  0  0  0  0  0  0  0
  1  2  1  0
  2  3  1  0
  3  4  2  0
  4  5  1  0
  5  6  2  0
  6  7  1  0
  7  8  1  0
  8  9  1  0
  9 10  2  0
 10 11  1  0
 11 12  2  0
 12 13  1  0
 13 14  1  0
 13 15  2  0
 15 16  1  0
 16 17  2  0
 16 18  1  0
 18 19  1  0
  6 20  1  0
 20 21  2  0
 21 22  1  0
 22 23  1  0
 21  3  1  0
 18  7  2  0
 15  9  1  0
  1 24  1  0
  1 25  1  0
  1 26  1  0
  2 27  1  0
  2 28  1  0
  4 29  1  0
  5 30  1  0
 10 31  1  0
 11 32  1  0
 12 33  1  0
 14 34  1  0
 19 35  1  0
 20 36  1  0
 22 37  1  0
 22 38  1  0
 23 39  1  0
 23 40  1  0
 23 41  1  0
M  END
>  <meeko>  (4) 
{"is_sidechain": [false], "free_energy": -8.604, "intermolecular_energy": -10.556, "internal_energy": -0.643}

$$$$
cand_039_out
     RDKit          3D

 41 43  0  0  0  0  0  0  0  0999 V2000
   21.3650  -24.5090   45.2570 C   0  0  0  0  0  0  0  0  0  0  0  0
   22.3970  -25.6000   45.0120 C   0  0  0  0  0  0  0  0  0  0  0  0
   22.1190  -26.3650   43.7380 C   0  0  0  0  0  0  0  0  0  0  0  0
   20.9010  -26.1270   43.0780 C   0  0  0  0  0  0  0  0  0  0  0  0
   20.5810  -26.7920   41.8920 C   0  0  0  0  0  0  0  0  0  0  0  0
   21.4650  -27.7180   41.3320 C   0  0  0  0  0  0  0  0  0  0  0  0
   21.1190  -28.3960   40.0640 C   0  0  0  0  0  0  0  0  0  0  0  0
   20.7290  -29.7170   40.2490 O   0  0  0  0  0  0  0  0  0  0  0  0
   20.3790  -30.4650   39.1530 C   0  0  0  0  0  0  0  0  0  0  0  0
   19.9790  -31.7810   39.3860 C   0  0  0  0  0  0  0  0  0  0  0  0
   19.6120  -32.5980   38.3130 C   0  0  0  0  0  0  0  0  0  0  0  0
   19.6450  -32.0980   37.0100 C   0  0  0  0  0  0  0  0  0  0  0  0
   20.0450  -30.7840   36.7810 C   0  0  0  0  0  0  0  0  0  0  0  0
   20.0540  -30.3590   35.4810 O   0  0  0  0  0  0  0  0  0  0  0  0
   20.4110  -29.9670   37.8540 C   0  0  0  0  0  0  0  0  0  0  0  0
   20.8370  -28.5810   37.6570 C   0  0  0  0  0  0  0  0  0  0  0  0
   20.8990  -28.0720   36.5400 O   0  0  0  0  0  0  0  0  0  0  0  0
   21.1970  -27.7970   38.8610 C   0  0  0  0  0  0  0  0  0  0  0  0
   21.6110  -26.4930   38.6620 O   0  0  0  0  0  0  0  0  0  0  0  0
   22.6880  -27.9420   41.9790 C   0  0  0  0  0  0  0  0  0  0  0  0
   23.0330  -27.2770   43.1740 C   0  0  0  0  0  0  0  0  0  0  0  0
   24.3650  -27.6070   43.8080 C   0  0  0  0  0  0  0  0  0  0  0  0
   24.3160  -28.9170   44.5820 C   0  0  0  0  0  0  0  0  0  0  0  0
   21.2311  -24.3674   46.3396 H   0  0  0  0  0  0  0  0  0  0  0  0
   21.7114  -23.5682   44.8043 H   0  0  0  0  0  0  0  0  0  0  0  0
   20.4065  -24.8026   44.8043 H   0  0  0  0  0  0  0  0  0  0  0  0
   23.3924  -25.1376   44.9389 H   0  0  0  0  0  0  0  0  0  0  0  0
   22.3489  -26.3087   45.8519 H   0  0  0  0  0  0  0  0  0  0  0  0
   20.1879  -25.4050   43.5025 H   0  0  0  0  0  0  0  0  0  0  0  0
   19.6227  -26.5845   41.3935 H   0  0  0  0  0  0  0  0  0  0  0  0
   19.9525  -32.1751   40.4126 H   0  0  0  0  0  0  0  0  0  0  0  0
   19.2969  -33.6360   38.4954 H   0  0  0  0  0  0  0  0  0  0  0  0
   19.3555  -32.7409   36.1657 H   0  0  0  0  0  0  0  0  0  0  0  0
   19.9840  -30.9820   34.7840 H   0  0  0  0  0  0  0  0  0  0  0  0
   22.4470  -26.3210   38.2760 H   0  0  0  0  0  0  0  0  0  0  0  0
   23.3998  -28.6576   41.5418 H   0  0  0  0  0  0  0  0  0  0  0  0
   25.1248  -27.6895   43.0168 H   0  0  0  0  0  0  0  0  0  0  0  0
   24.6148  -26.8023   44.5151 H   0  0  0  0  0  0  0  0  0  0  0  0
   24.3239  -28.7056   45.6615 H   0  0  0  0  0  0  0  0  0  0  0  0
   23.3968  -29.4624   44.3219 H   0  0  0  0  0  0  0  0  0  0  0  0
   25.1919  -29.5295   44.3219 H   0  0  0  0  0  0  0  0  0  0  0  0
  1  2  1  0
  2  3  1  0
  3  4  2  0
  4  5  1  0
  5  6  2  0
  6  7  1  0
  7  8  1  0
  8  9  1  0
  9 10  2  0
 10 11  1  0
 11 12  2  0
 12 13  1  0
 13 14  1  0
 13 15  2  0
 15 16  1  0
 16 17  2  0
 16 18  1  0
 18 19  1  0
  6 20  1  0
 20 21  2  0
 21 22  1  0
 22 23  1  0
 21  3  1  0
 18  7  2  0
 15  9  1  0
  1 24  1  0
  1 25  1  0
  1 26  1  0
  2 27  1  0
  2 28  1  0
  4 29  1  0
  5 30  1  0
 10 31  1  0
 11 32  1  0
 12 33  1  0
 14 34  1  0
 19 35  1  0
 20 36  1  0
 22 37  1  0
 22 38  1  0
 23 39  1  0
 23 40  1  0
 23 41  1  0
M  END
>  <meeko>  (5) 
{"is_sidechain": [false], "free_energy": -8.565, "intermolecular_energy": -10.551, "internal_energy": -0.6}

$$$$
cand_039_out
     RDKit          3D

 41 43  0  0  0  0  0  0  0  0999 V2000
   20.7700  -30.9360   34.8370 C   0  0  0  0  0  0  0  0  0  0  0  0
   20.0150  -31.4570   36.0520 C   0  0  0  0  0  0  0  0  0  0  0  0
   20.4840  -30.8040   37.3310 C   0  0  0  0  0  0  0  0  0  0  0  0
   21.1620  -29.5760   37.2360 C   0  0  0  0  0  0  0  0  0  0  0  0
   21.6170  -28.9120   38.3780 C   0  0  0  0  0  0  0  0  0  0  0  0
   21.4130  -29.4560   39.6490 C   0  0  0  0  0  0  0  0  0  0  0  0
   21.8830  -28.7280   40.8470 C   0  0  0  0  0  0  0  0  0  0  0  0
   21.0640  -27.6560   41.1830 O   0  0  0  0  0  0  0  0  0  0  0  0
   21.3840  -26.8930   42.2770 C   0  0  0  0  0  0  0  0  0  0  0  0
   20.5260  -25.8380   42.5860 C   0  0  0  0  0  0  0  0  0  0  0  0
   20.7970  -25.0200   43.6870 C   0  0  0  0  0  0  0  0  0  0  0  0
   21.9240  -25.2580   44.4750 C   0  0  0  0  0  0  0  0  0  0  0  0
   22.7790  -26.3120   44.1640 C   0  0  0  0  0  0  0  0  0  0  0  0
   23.8640  -26.4890   44.9770 O   0  0  0  0  0  0  0  0  0  0  0  0
   22.5080  -27.1310   43.0630 C   0  0  0  0  0  0  0  0  0  0  0  0
   23.3790  -28.2480   42.7010 C   0  0  0  0  0  0  0  0  0  0  0  0
   24.3940  -28.5160   43.3420 O   0  0  0  0  0  0  0  0  0  0  0  0
   22.9990  -29.0600   41.5220 C   0  0  0  0  0  0  0  0  0  0  0  0
   23.8370  -30.1050   41.1810 O   0  0  0  0  0  0  0  0  0  0  0  0
   20.7210  -30.6710   39.7470 C   0  0  0  0  0  0  0  0  0  0  0  0
   20.2490  -31.3540   38.6070 C   0  0  0  0  0  0  0  0  0  0  0  0
   19.5360  -32.6710   38.8170 C   0  0  0  0  0  0  0  0  0  0  0  0
   18.1440  -32.4760   39.4000 C   0  0  0  0  0  0  0  0  0  0  0  0
   21.6331  -30.3404   35.1693 H   0  0  0  0  0  0  0  0  0  0  0  0
   21.1213  -31.7848   34.2319 H   0  0  0  0  0  0  0  0  0  0  0  0
   20.1011  -30.3063   34.2319 H   0  0  0  0  0  0  0  0  0  0  0  0
   18.9428  -31.2500   35.9198 H   0  0  0  0  0  0  0  0  0  0  0  0
   20.2040  -32.5376   36.1325 H   0  0  0  0  0  0  0  0  0  0  0  0
   21.3372  -29.1304   36.2457 H   0  0  0  0  0  0  0  0  0  0  0  0
   22.1415  -27.9506   38.2756 H   0  0  0  0  0  0  0  0  0  0  0  0
   19.6379  -25.6498   41.9648 H   0  0  0  0  0  0  0  0  0  0  0  0
   20.1210  -24.1877   43.9325 H   0  0  0  0  0  0  0  0  0  0  0  0
   22.1366  -24.6136   45.3408 H   0  0  0  0  0  0  0  0  0  0  0  0
   24.6120  -25.9320   44.8880 H   0  0  0  0  0  0  0  0  0  0  0  0
   24.7360  -29.9370   40.9760 H   0  0  0  0  0  0  0  0  0  0  0  0
   20.5409  -31.1043   40.7419 H   0  0  0  0  0  0  0  0  0  0  0  0
   19.4472  -33.1856   37.8489 H   0  0  0  0  0  0  0  0  0  0  0  0
   20.1240  -33.2670   39.5305 H   0  0  0  0  0  0  0  0  0  0  0  0
   18.2021  -32.4841   40.4984 H   0  0  0  0  0  0  0  0  0  0  0  0
   17.7364  -31.5120   39.0615 H   0  0  0  0  0  0  0  0  0  0  0  0
   17.4872  -33.2909   39.0615 H   0  0  0  0  0  0  0  0  0  0  0  0
  1  2  1  0
  2  3  1  0
  3  4  2  0
  4  5  1  0
  5  6  2  0
  6  7  1  0
  7  8  1  0
  8  9  1  0
  9 10  2  0
 10 11  1  0
 11 12  2  0
 12 13  1  0
 13 14  1  0
 13 15  2  0
 15 16  1  0
 16 17  2  0
 16 18  1  0
 18 19  1  0
  6 20  1  0
 20 21  2  0
 21 22  1  0
 22 23  1  0
 21  3  1  0
 18  7  2  0
 15  9  1  0
  1 24  1  0
  1 25  1  0
  1 26  1  0
  2 27  1  0
  2 28  1  0
  4 29  1  0
  5 30  1  0
 10 31  1  0
 11 32  1  0
 12 33  1  0
 14 34  1  0
 19 35  1  0
 20 36  1  0
 22 37  1  0
 22 38  1  0
 23 39  1  0
 23 40  1  0
 23 41  1  0
M  END
>  <meeko>  (6) 
{"is_sidechain": [false], "free_energy": -8.477, "intermolecular_energy": -10.42, "internal_energy": -0.623}

$$$$
cand_039_out
     RDKit          3D

 41 43  0  0  0  0  0  0  0  0999 V2000
   23.3620  -27.5570   42.9920 C   0  0  0  0  0  0  0  0  0  0  0  0
   22.2810  -26.9500   42.1100 C   0  0  0  0  0  0  0  0  0  0  0  0
   21.7440  -27.9460   41.1080 C   0  0  0  0  0  0  0  0  0  0  0  0
   22.5930  -28.9850   40.6900 C   0  0  0  0  0  0  0  0  0  0  0  0
   22.1620  -29.9460   39.7720 C   0  0  0  0  0  0  0  0  0  0  0  0
   20.8700  -29.8950   39.2410 C   0  0  0  0  0  0  0  0  0  0  0  0
   20.4240  -30.9330   38.2870 C   0  0  0  0  0  0  0  0  0  0  0  0
   20.7390  -30.6260   36.9680 O   0  0  0  0  0  0  0  0  0  0  0  0
   20.3810  -31.5050   35.9780 C   0  0  0  0  0  0  0  0  0  0  0  0
   20.7320  -31.1640   34.6720 C   0  0  0  0  0  0  0  0  0  0  0  0
   20.3950  -32.0160   33.6160 C   0  0  0  0  0  0  0  0  0  0  0  0
   19.7090  -33.2060   33.8680 C   0  0  0  0  0  0  0  0  0  0  0  0
   19.3610  -33.5430   35.1720 C   0  0  0  0  0  0  0  0  0  0  0  0
   18.6910  -34.7220   35.3480 O   0  0  0  0  0  0  0  0  0  0  0  0
   19.6990  -32.6920   36.2290 C   0  0  0  0  0  0  0  0  0  0  0  0
   19.3520  -33.0080   37.6150 C   0  0  0  0  0  0  0  0  0  0  0  0
   18.7430  -34.0330   37.9150 O   0  0  0  0  0  0  0  0  0  0  0  0
   19.7620  -32.0440   38.6610 C   0  0  0  0  0  0  0  0  0  0  0  0
   19.4170  -32.3470   39.9650 O   0  0  0  0  0  0  0  0  0  0  0  0
   20.0160  -28.8700   39.6700 C   0  0  0  0  0  0  0  0  0  0  0  0
   20.4310  -27.8950   40.6000 C   0  0  0  0  0  0  0  0  0  0  0  0
   19.4420  -26.8150   40.9810 C   0  0  0  0  0  0  0  0  0  0  0  0
   18.5490  -26.4260   39.8120 C   0  0  0  0  0  0  0  0  0  0  0  0
   23.0983  -27.4089   44.0496 H   0  0  0  0  0  0  0  0  0  0  0  0
   23.4449  -28.6336   42.7820 H   0  0  0  0  0  0  0  0  0  0  0  0
   24.3244  -27.0673   42.7820 H   0  0  0  0  0  0  0  0  0  0  0  0
   21.4534  -26.6063   42.7479 H   0  0  0  0  0  0  0  0  0  0  0  0
   22.7269  -26.1131   41.5525 H   0  0  0  0  0  0  0  0  0  0  0  0
   23.6150  -29.0426   41.0927 H   0  0  0  0  0  0  0  0  0  0  0  0
   22.8460  -30.7505   39.4641 H   0  0  0  0  0  0  0  0  0  0  0  0
   21.2727  -30.2269   34.4733 H   0  0  0  0  0  0  0  0  0  0  0  0
   20.6706  -31.7486   32.5852 H   0  0  0  0  0  0  0  0  0  0  0  0
   19.4442  -33.8758   33.0366 H   0  0  0  0  0  0  0  0  0  0  0  0
   18.3270  -35.1690   34.6090 H   0  0  0  0  0  0  0  0  0  0  0  0
   18.8520  -31.7750   40.4450 H   0  0  0  0  0  0  0  0  0  0  0  0
   18.9925  -28.8249   39.2696 H   0  0  0  0  0  0  0  0  0  0  0  0
   18.8112  -27.1843   41.8030 H   0  0  0  0  0  0  0  0  0  0  0  0
   20.0105  -25.9244   41.2870 H   0  0  0  0  0  0  0  0  0  0  0  0
   17.6034  -26.0141   40.1942 H   0  0  0  0  0  0  0  0  0  0  0  0
   19.0577  -25.6679   39.1984 H   0  0  0  0  0  0  0  0  0  0  0  0
   18.3404  -27.3148   39.1984 H   0  0  0  0  0  0  0  0  0  0  0  0
  1  2  1  0
  2  3  1  0
  3  4  2  0
  4  5  1  0
  5  6  2  0
  6  7  1  0
  7  8  1  0
  8  9  1  0
  9 10  2  0
 10 11  1  0
 11 12  2  0
 12 13  1  0
 13 14  1  0
 13 15  2  0
 15 16  1  0
 16 17  2  0
 16 18  1  0
 18 19  1  0
  6 20  1  0
 20 21  2  0
 21 22  1  0
 22 23  1  0
 21  3  1  0
 18  7  2  0
 15  9  1  0
  1 24  1  0
  1 25  1  0
  1 26  1  0
  2 27  1  0
  2 28  1  0
  4 29  1  0
  5 30  1  0
 10 31  1  0
 11 32  1  0
 12 33  1  0
 14 34  1  0
 19 35  1  0
 20 36  1  0
 22 37  1  0
 22 38  1  0
 23 39  1  0
 23 40  1  0
 23 41  1  0
M  END
>  <meeko>  (7) 
{"is_sidechain": [false], "free_energy": -8.416, "intermolecular_energy": -10.344, "internal_energy": -0.623}

$$$$
cand_039_out
     RDKit          3D

 41 43  0  0  0  0  0  0  0  0999 V2000
   18.2720  -33.6980   37.4500 C   0  0  0  0  0  0  0  0  0  0  0  0
   19.3660  -32.9360   36.7160 C   0  0  0  0  0  0  0  0  0  0  0  0
   19.8900  -31.7750   37.5290 C   0  0  0  0  0  0  0  0  0  0  0  0
   19.8050  -31.8590   38.9300 C   0  0  0  0  0  0  0  0  0  0  0  0
   20.2760  -30.8270   39.7450 C   0  0  0  0  0  0  0  0  0  0  0  0
   20.8420  -29.6780   39.1860 C   0  0  0  0  0  0  0  0  0  0  0  0
   21.3550  -28.6050   40.0650 C   0  0  0  0  0  0  0  0  0  0  0  0
   22.2740  -29.0670   41.0000 O   0  0  0  0  0  0  0  0  0  0  0  0
   22.8300  -28.1740   41.8800 C   0  0  0  0  0  0  0  0  0  0  0  0
   23.7590  -28.6780   42.7910 C   0  0  0  0  0  0  0  0  0  0  0  0
   24.3620  -27.8220   43.7170 C   0  0  0  0  0  0  0  0  0  0  0  0
   24.0340  -26.4650   43.7320 C   0  0  0  0  0  0  0  0  0  0  0  0
   23.1060  -25.9650   42.8220 C   0  0  0  0  0  0  0  0  0  0  0  0
   22.8320  -24.6270   42.8920 O   0  0  0  0  0  0  0  0  0  0  0  0
   22.5050  -26.8210   41.8950 C   0  0  0  0  0  0  0  0  0  0  0  0
   21.5250  -26.3370   40.9220 C   0  0  0  0  0  0  0  0  0  0  0  0
   21.1800  -25.1580   40.8780 O   0  0  0  0  0  0  0  0  0  0  0  0
   20.9510  -27.3240   39.9780 C   0  0  0  0  0  0  0  0  0  0  0  0
   20.0170  -26.8580   39.0720 O   0  0  0  0  0  0  0  0  0  0  0  0
   20.9440  -29.6010   37.7900 C   0  0  0  0  0  0  0  0  0  0  0  0
   20.4800  -30.6350   36.9500 C   0  0  0  0  0  0  0  0  0  0  0  0
   20.6130  -30.4450   35.4560 C   0  0  0  0  0  0  0  0  0  0  0  0
   20.1260  -29.0730   35.0120 C   0  0  0  0  0  0  0  0  0  0  0  0
   18.4189  -33.5957   38.5353 H   0  0  0  0  0  0  0  0  0  0  0  0
   17.2899  -33.2875   37.1726 H   0  0  0  0  0  0  0  0  0  0  0  0
   18.3165  -34.7615   37.1726 H   0  0  0  0  0  0  0  0  0  0  0  0
   20.1971  -33.6246   36.5035 H   0  0  0  0  0  0  0  0  0  0  0  0
   18.9354  -32.5336   35.7872 H   0  0  0  0  0  0  0  0  0  0  0  0
   19.3600  -32.7526   39.3920 H   0  0  0  0  0  0  0  0  0  0  0  0
   20.2006  -30.9197   40.8385 H   0  0  0  0  0  0  0  0  0  0  0  0
   24.0165  -29.7474   42.7805 H   0  0  0  0  0  0  0  0  0  0  0  0
   25.0957  -28.2179   44.4346 H   0  0  0  0  0  0  0  0  0  0  0  0
   24.5079  -25.7918   44.4615 H   0  0  0  0  0  0  0  0  0  0  0  0
   23.2750  -24.0900   43.5190 H   0  0  0  0  0  0  0  0  0  0  0  0
   20.2980  -26.4380   38.2830 H   0  0  0  0  0  0  0  0  0  0  0  0
   21.3991  -28.7082   37.3363 H   0  0  0  0  0  0  0  0  0  0  0  0
   21.6713  -30.5541   35.1766 H   0  0  0  0  0  0  0  0  0  0  0  0
   19.9910  -31.2043   34.9594 H   0  0  0  0  0  0  0  0  0  0  0  0
   19.9075  -28.4574   35.8970 H   0  0  0  0  0  0  0  0  0  0  0  0
   20.9057  -28.5846   34.4090 H   0  0  0  0  0  0  0  0  0  0  0  0
   19.2129  -29.1855   34.4090 H   0  0  0  0  0  0  0  0  0  0  0  0
  1  2  1  0
  2  3  1  0
  3  4  2  0
  4  5  1  0
  5  6  2  0
  6  7  1  0
  7  8  1  0
  8  9  1  0
  9 10  2  0
 10 11  1  0
 11 12  2  0
 12 13  1  0
 13 14  1  0
 13 15  2  0
 15 16  1  0
 16 17  2  0
 16 18  1  0
 18 19  1  0
  6 20  1  0
 20 21  2  0
 21 22  1  0
 22 23  1  0
 21  3  1  0
 18  7  2  0
 15  9  1  0
  1 24  1  0
  1 25  1  0
  1 26  1  0
  2 27  1  0
  2 28  1  0
  4 29  1  0
  5 30  1  0
 10 31  1  0
 11 32  1  0
 12 33  1  0
 14 34  1  0
 19 35  1  0
 20 36  1  0
 22 37  1  0
 22 38  1  0
 23 39  1  0
 23 40  1  0
 23 41  1  0
M  END
>  <meeko>  (8) 
{"is_sidechain": [false], "free_energy": -8.121, "intermolecular_energy": -10.153, "internal_energy": -0.451}

$$$$
cand_039_out
     RDKit          3D

 41 43  0  0  0  0  0  0  0  0999 V2000
   22.6970  -26.0090   45.0720 C   0  0  0  0  0  0  0  0  0  0  0  0
   22.6710  -27.4700   44.6460 C   0  0  0  0  0  0  0  0  0  0  0  0
   22.2730  -27.6280   43.1960 C   0  0  0  0  0  0  0  0  0  0  0  0
   21.0900  -27.0050   42.7640 C   0  0  0  0  0  0  0  0  0  0  0  0
   20.6660  -27.1020   41.4370 C   0  0  0  0  0  0  0  0  0  0  0  0
   21.4080  -27.8280   40.5020 C   0  0  0  0  0  0  0  0  0  0  0  0
   20.9550  -27.9010   39.0960 C   0  0  0  0  0  0  0  0  0  0  0  0
   21.0670  -29.1790   38.5590 O   0  0  0  0  0  0  0  0  0  0  0  0
   20.6800  -29.3890   37.2600 C   0  0  0  0  0  0  0  0  0  0  0  0
   20.7950  -30.6890   36.7670 C   0  0  0  0  0  0  0  0  0  0  0  0
   20.4200  -30.9700   35.4510 C   0  0  0  0  0  0  0  0  0  0  0  0
   19.9320  -29.9520   34.6290 C   0  0  0  0  0  0  0  0  0  0  0  0
   19.8180  -28.6560   35.1240 C   0  0  0  0  0  0  0  0  0  0  0  0
   19.3330  -27.7080   34.2660 O   0  0  0  0  0  0  0  0  0  0  0  0
   20.1920  -28.3750   36.4410 C   0  0  0  0  0  0  0  0  0  0  0  0
   20.0890  -27.0260   37.0000 C   0  0  0  0  0  0  0  0  0  0  0  0
   19.6750  -26.0770   36.3370 O   0  0  0  0  0  0  0  0  0  0  0  0
   20.5040  -26.8350   38.4090 C   0  0  0  0  0  0  0  0  0  0  0  0
   20.4150  -25.5550   38.9230 O   0  0  0  0  0  0  0  0  0  0  0  0
   22.5980  -28.4350   40.9270 C   0  0  0  0  0  0  0  0  0  0  0  0
   23.0460  -28.3440   42.2610 C   0  0  0  0  0  0  0  0  0  0  0  0
   24.3300  -29.0550   42.6250 C   0  0  0  0  0  0  0  0  0  0  0  0
   24.1680  -30.5680   42.5970 C   0  0  0  0  0  0  0  0  0  0  0  0
   22.6981  -25.9473   46.1703 H   0  0  0  0  0  0  0  0  0  0  0  0
   23.6038  -25.5279   44.6768 H   0  0  0  0  0  0  0  0  0  0  0  0
   21.8078  -25.4960   44.6768 H   0  0  0  0  0  0  0  0  0  0  0  0
   23.6735  -27.8997   44.7884 H   0  0  0  0  0  0  0  0  0  0  0  0
   21.9244  -27.9915   45.2630 H   0  0  0  0  0  0  0  0  0  0  0  0
   20.4875  -26.4310   43.4834 H   0  0  0  0  0  0  0  0  0  0  0  0
   19.7377  -26.6014   41.1245 H   0  0  0  0  0  0  0  0  0  0  0  0
   21.1803  -31.4913   37.4134 H   0  0  0  0  0  0  0  0  0  0  0  0
   20.5093  -31.9949   35.0616 H   0  0  0  0  0  0  0  0  0  0  0  0
   19.6383  -30.1738   33.5924 H   0  0  0  0  0  0  0  0  0  0  0  0
   19.1660  -27.9280   33.3710 H   0  0  0  0  0  0  0  0  0  0  0  0
   19.6630  -25.3010   39.4200 H   0  0  0  0  0  0  0  0  0  0  0  0
   23.1997  -28.9986   40.1988 H   0  0  0  0  0  0  0  0  0  0  0  0
   25.1117  -28.7676   41.9065 H   0  0  0  0  0  0  0  0  0  0  0  0
   24.6047  -28.7603   43.6485 H   0  0  0  0  0  0  0  0  0  0  0  0
   24.1269  -30.9515   43.6272 H   0  0  0  0  0  0  0  0  0  0  0  0
   23.2369  -30.8274   42.0718 H   0  0  0  0  0  0  0  0  0  0  0  0
   25.0230  -31.0187   42.0718 H   0  0  0  0  0  0  0  0  0  0  0  0
  1  2  1  0
  2  3  1  0
  3  4  2  0
  4  5  1  0
  5  6  2  0
  6  7  1  0
  7  8  1  0
  8  9  1  0
  9 10  2  0
 10 11  1  0
 11 12  2  0
 12 13  1  0
 13 14  1  0
 13 15  2  0
 15 16  1  0
 16 17  2  0
 16 18  1  0
 18 19  1  0
  6 20  1  0
 20 21  2  0
 21 22  1  0
 22 23  1  0
 21  3  1  0
 18  7  2  0
 15  9  1  0
  1 24  1  0
  1 25  1  0
  1 26  1  0
  2 27  1  0
  2 28  1  0
  4 29  1  0
  5 30  1  0
 10 31  1  0
 11 32  1  0
 12 33  1  0
 14 34  1  0
 19 35  1  0
 20 36  1  0
 22 37  1  0
 22 38  1  0
 23 39  1  0
 23 40  1  0
 23 41  1  0
M  END
>  <meeko>  (9) 
{"is_sidechain": [false], "free_energy": -7.822, "intermolecular_energy": -9.942, "internal_energy": -0.292}

$$$$
