cand_008_out
     RDKit          3D

 35 37  0  0  0  0  0  0  0  0999 V2000
   21.0020  -30.3900   36.0380 O   0  0  0  0  0  0  0  0  0  0  0  0
   20.8860  -30.5830   37.2460 C   0  0  0  0  0  0  0  0  0  0  0  0
   21.6120  -29.7310   38.2160 C   0  0  0  0  0  0  0  0  0  0  0  0
   22.4220  -28.7350   37.6980 O   0  0  0  0  0  0  0  0  0  0  0  0
   21.4590  -29.9780   39.5300 C   0  0  0  0  0  0  0  0  0  0  0  0
   22.1420  -29.2000   40.5860 C   0  0  0  0  0  0  0  0  0  0  0  0
   21.7490  -27.8980   40.9120 C   0  0  0  0  0  0  0  0  0  0  0  0
   22.3950  -27.1880   41.9280 C   0  0  0  0  0  0  0  0  0  0  0  0
   23.4510  -27.7660   42.6510 C   0  0  0  0  0  0  0  0  0  0  0  0
   24.1260  -26.9740   43.7490 C   0  0  0  0  0  0  0  0  0  0  0  0
   23.3220  -26.7610   44.8300 F   0  0  0  0  0  0  0  0  0  0  0  0
   24.5030  -25.7340   43.3300 F   0  0  0  0  0  0  0  0  0  0  0  0
   23.8440  -29.0890   42.3510 C   0  0  0  0  0  0  0  0  0  0  0  0
   24.9720  -29.7620   43.1000 C   0  0  0  0  0  0  0  0  0  0  0  0
   24.5150  -30.5500   44.1150 F   0  0  0  0  0  0  0  0  0  0  0  0
   25.7200  -30.5880   42.3140 F   0  0  0  0  0  0  0  0  0  0  0  0
   23.1870  -29.7850   41.3170 C   0  0  0  0  0  0  0  0  0  0  0  0
   20.6650  -30.9990   40.0400 O   0  0  0  0  0  0  0  0  0  0  0  0
   19.9750  -31.8000   39.1660 C   0  0  0  0  0  0  0  0  0  0  0  0
   19.1810  -32.8050   39.7220 C   0  0  0  0  0  0  0  0  0  0  0  0
   18.4530  -33.6570   38.8880 C   0  0  0  0  0  0  0  0  0  0  0  0
   18.5190  -33.5050   37.5010 C   0  0  0  0  0  0  0  0  0  0  0  0
   19.3120  -32.5020   36.9500 C   0  0  0  0  0  0  0  0  0  0  0  0
   19.3320  -32.4090   35.5860 O   0  0  0  0  0  0  0  0  0  0  0  0
   20.0400  -31.6480   37.7840 C   0  0  0  0  0  0  0  0  0  0  0  0
   22.0810  -27.8720   37.5760 H   0  0  0  0  0  0  0  0  0  0  0  0
   20.9211  -27.4268   40.3619 H   0  0  0  0  0  0  0  0  0  0  0  0
   22.0721  -26.1634   42.1643 H   0  0  0  0  0  0  0  0  0  0  0  0
   24.9922  -27.5938   44.0239 H   0  0  0  0  0  0  0  0  0  0  0  0
   25.5775  -28.9225   43.4723 H   0  0  0  0  0  0  0  0  0  0  0  0
   23.5009  -30.8116   41.0771 H   0  0  0  0  0  0  0  0  0  0  0  0
   19.1289  -32.9256   40.8141 H   0  0  0  0  0  0  0  0  0  0  0  0
   17.8266  -34.4490   39.3243 H   0  0  0  0  0  0  0  0  0  0  0  0
   17.9454  -34.1766   36.8452 H   0  0  0  0  0  0  0  0  0  0  0  0
   18.5930  -32.0570   35.1300 H   0  0  0  0  0  0  0  0  0  0  0  0
  1  2  2  0
  2  3  1  0
  3  4  1  0
  3  5  2  0
  5  6  1  0
  6  7  2  0
  7  8  1  0
  8  9  2  0
  9 10  1  0
 10 11  1  0
 10 12  1  0
  9 13  1  0
 13 14  1  0
 14 15  1  0
 14 16  1  0
 13 17  2  0
  5 18  1  0
 18 19  1  0
 19 20  2  0
 20 21  1  0
 21 22  2  0
 22 23  1  0
 23 24  1  0
 23 25  2  0
 25  2  1  0
 17  6  1  0
 25 19  1  0
  4 26  1  0
  7 27  1  0
  8 28  1  0
 10 29  1  0
 14 30  1  0
 17 31  1  0
 20 32  1  0
 21 33  1  0
 22 34  1  0
 24 35  1  0
M  END
>  <meeko>  (1) 
{"is_sidechain": [false], "free_energy": -9.84, "intermolecular_energy": -12.141, "internal_energy": -0.627}

$$$$
cand_008_out
     RDKit          3D

 35 37  0  0  0  0  0  0  0  0999 V2000
   20.9150  -30.4010   35.7910 O   0  0  0  0  0  0  0  0  0  0  0  0
   20.8030  -30.6680   36.9860 C   0  0  0  0  0  0  0  0  0  0  0  0
   21.4950  -29.8490   38.0070 C   0  0  0  0  0  0  0  0  0  0  0  0
   22.2710  -28.7970   37.5510 O   0  0  0  0  0  0  0  0  0  0  0  0
   21.3480  -30.1770   39.3040 C   0  0  0  0  0  0  0  0  0  0  0  0
   22.0010  -29.4390   40.4050 C   0  0  0  0  0  0  0  0  0  0  0  0
   23.1940  -29.8830   40.9840 C   0  0  0  0  0  0  0  0  0  0  0  0
   23.8070  -29.1590   42.0090 C   0  0  0  0  0  0  0  0  0  0  0  0
   23.2440  -27.9630   42.4830 C   0  0  0  0  0  0  0  0  0  0  0  0
   23.9330  -27.1980   43.5910 C   0  0  0  0  0  0  0  0  0  0  0  0
   24.6390  -26.1210   43.1410 F   0  0  0  0  0  0  0  0  0  0  0  0
   24.8370  -27.9670   44.2600 F   0  0  0  0  0  0  0  0  0  0  0  0
   22.0510  -27.4870   41.8920 C   0  0  0  0  0  0  0  0  0  0  0  0
   21.4030  -26.2030   42.3600 C   0  0  0  0  0  0  0  0  0  0  0  0
   21.4800  -25.2180   41.4200 F   0  0  0  0  0  0  0  0  0  0  0  0
   20.0730  -26.3400   42.6260 F   0  0  0  0  0  0  0  0  0  0  0  0
   21.4440  -28.2360   40.8660 C   0  0  0  0  0  0  0  0  0  0  0  0
   20.5890  -31.2530   39.7490 O   0  0  0  0  0  0  0  0  0  0  0  0
   19.9300  -32.0260   38.8280 C   0  0  0  0  0  0  0  0  0  0  0  0
   19.1700  -33.0880   39.3210 C   0  0  0  0  0  0  0  0  0  0  0  0
   18.4750  -33.9150   38.4360 C   0  0  0  0  0  0  0  0  0  0  0  0
   18.5390  -33.6800   37.0600 C   0  0  0  0  0  0  0  0  0  0  0  0
   19.2970  -32.6200   36.5720 C   0  0  0  0  0  0  0  0  0  0  0  0
   19.3170  -32.4480   35.2160 O   0  0  0  0  0  0  0  0  0  0  0  0
   19.9930  -31.7920   37.4580 C   0  0  0  0  0  0  0  0  0  0  0  0
   23.1650  -28.7250   37.8180 H   0  0  0  0  0  0  0  0  0  0  0  0
   23.6560  -30.8154   40.6272 H   0  0  0  0  0  0  0  0  0  0  0  0
   24.7433  -29.5306   42.4509 H   0  0  0  0  0  0  0  0  0  0  0  0
   23.1062  -26.8781   44.2422 H   0  0  0  0  0  0  0  0  0  0  0  0
   21.9603  -25.9450   43.2726 H   0  0  0  0  0  0  0  0  0  0  0  0
   20.5103  -27.8694   40.4146 H   0  0  0  0  0  0  0  0  0  0  0  0
   19.1187  -33.2730   40.4041 H   0  0  0  0  0  0  0  0  0  0  0  0
   17.8762  -34.7528   38.8227 H   0  0  0  0  0  0  0  0  0  0  0  0
   17.9911  -34.3319   36.3637 H   0  0  0  0  0  0  0  0  0  0  0  0
   19.9040  -32.9530   34.6880 H   0  0  0  0  0  0  0  0  0  0  0  0
  1  2  2  0
  2  3  1  0
  3  4  1  0
  3  5  2  0
  5  6  1  0
  6  7  2  0
  7  8  1  0
  8  9  2  0
  9 10  1  0
 10 11  1  0
 10 12  1  0
  9 13  1  0
 13 14  1  0
 14 15  1  0
 14 16  1  0
 13 17  2  0
  5 18  1  0
 18 19  1  0
 19 20  2  0
 20 21  1  0
 21 22  2  0
 22 23  1  0
 23 24  1  0
 23 25  2  0
 25  2  1  0
 17  6  1  0
 25 19  1  0
  4 26  1  0
  7 27  1  0
  8 28  1  0
 10 29  1  0
 14 30  1  0
 17 31  1  0
 20 32  1  0
 21 33  1  0
 22 34  1  0
 24 35  1  0
M  END
>  <meeko>  (2) 
{"is_sidechain": [false], "free_energy": -9.547, "intermolecular_energy": -11.738, "internal_energy": -0.668}

$$$$
cand_008_out
     RDKit          3D

 35 37  0  0  0  0  0  0  0  0999 V2000
   21.4690  -24.9450   41.2430 O   0  0  0  0  0  0  0  0  0  0  0  0
   21.7800  -26.1340   41.2110 C   0  0  0  0  0  0  0  0  0  0  0  0
   21.2270  -27.0270   40.1650 C   0  0  0  0  0  0  0  0  0  0  0  0
   20.3490  -26.4630   39.2560 O   0  0  0  0  0  0  0  0  0  0  0  0
   21.5910  -28.3220   40.1670 C   0  0  0  0  0  0  0  0  0  0  0  0
   21.0940  -29.3040   39.1810 C   0  0  0  0  0  0  0  0  0  0  0  0
   21.5700  -29.3340   37.8660 C   0  0  0  0  0  0  0  0  0  0  0  0
   21.1020  -30.2860   36.9560 C   0  0  0  0  0  0  0  0  0  0  0  0
   20.1450  -31.2390   37.3380 C   0  0  0  0  0  0  0  0  0  0  0  0
   19.6620  -32.2590   36.3310 C   0  0  0  0  0  0  0  0  0  0  0  0
   19.7490  -33.5430   36.7840 F   0  0  0  0  0  0  0  0  0  0  0  0
   20.3920  -32.2320   35.1810 F   0  0  0  0  0  0  0  0  0  0  0  0
   19.6710  -31.2380   38.6690 C   0  0  0  0  0  0  0  0  0  0  0  0
   18.6430  -32.2440   39.1370 C   0  0  0  0  0  0  0  0  0  0  0  0
   19.1280  -33.0510   40.1230 F   0  0  0  0  0  0  0  0  0  0  0  0
   17.5270  -31.6650   39.6640 F   0  0  0  0  0  0  0  0  0  0  0  0
   20.1480  -30.2660   39.5700 C   0  0  0  0  0  0  0  0  0  0  0  0
   22.4520  -28.8840   41.1020 O   0  0  0  0  0  0  0  0  0  0  0  0
   22.9850  -28.0810   42.0790 C   0  0  0  0  0  0  0  0  0  0  0  0
   23.8540  -28.6850   42.9890 C   0  0  0  0  0  0  0  0  0  0  0  0
   24.4310  -27.9250   44.0080 C   0  0  0  0  0  0  0  0  0  0  0  0
   24.1410  -26.5630   44.1170 C   0  0  0  0  0  0  0  0  0  0  0  0
   23.2740  -25.9640   43.2070 C   0  0  0  0  0  0  0  0  0  0  0  0
   23.0320  -24.6280   43.3710 O   0  0  0  0  0  0  0  0  0  0  0  0
   22.6960  -26.7250   42.1860 C   0  0  0  0  0  0  0  0  0  0  0  0
   20.3380  -26.7630   38.3690 H   0  0  0  0  0  0  0  0  0  0  0  0
   22.3223  -28.5989   37.5440 H   0  0  0  0  0  0  0  0  0  0  0  0
   21.4890  -30.2884   35.9263 H   0  0  0  0  0  0  0  0  0  0  0  0
   18.6133  -31.9772   36.1556 H   0  0  0  0  0  0  0  0  0  0  0  0
   18.3965  -32.8102   38.2267 H   0  0  0  0  0  0  0  0  0  0  0  0
   19.7704  -30.2604   40.6031 H   0  0  0  0  0  0  0  0  0  0  0  0
   24.0837  -29.7573   42.9035 H   0  0  0  0  0  0  0  0  0  0  0  0
   25.1154  -28.3997   44.7265 H   0  0  0  0  0  0  0  0  0  0  0  0
   24.5966  -25.9650   44.9200 H   0  0  0  0  0  0  0  0  0  0  0  0
   22.6400  -24.3170   44.1630 H   0  0  0  0  0  0  0  0  0  0  0  0
  1  2  2  0
  2  3  1  0
  3  4  1  0
  3  5  2  0
  5  6  1  0
  6  7  2  0
  7  8  1  0
  8  9  2  0
  9 10  1  0
 10 11  1  0
 10 12  1  0
  9 13  1  0
 13 14  1  0
 14 15  1  0
 14 16  1  0
 13 17  2  0
  5 18  1  0
 18 19  1  0
 19 20  2  0
 20 21  1  0
 21 22  2  0
 22 23  1  0
 23 24  1  0
 23 25  2  0
 25  2  1  0
 17  6  1  0
 25 19  1  0
  4 26  1  0
  7 27  1  0
  8 28  1  0
 10 29  1  0
 14 30  1  0
 17 31  1  0
 20 32  1  0
 21 33  1  0
 22 34  1  0
 24 35  1  0
M  END
>  <meeko>  (3) 
{"is_sidechain": [false], "free_energy": -9.183, "intermolecular_energy": -11.494, "internal_energy": -0.464}

$$$$
cand_008_out
     RDKit          3D

 35 37  0  0  0  0  0  0  0  0999 V2000
   18.6880  -33.9330   37.9870 O   0  0  0  0  0  0  0  0  0  0  0  0
   19.3360  -32.9300   37.6960 C   0  0  0  0  0  0  0  0  0  0  0  0
   19.7740  -31.9870   38.7500 C   0  0  0  0  0  0  0  0  0  0  0  0
   19.4090  -32.2830   40.0520 O   0  0  0  0  0  0  0  0  0  0  0  0
   20.4800  -30.8990   38.3890 C   0  0  0  0  0  0  0  0  0  0  0  0
   20.9580  -29.8860   39.3530 C   0  0  0  0  0  0  0  0  0  0  0  0
   22.2620  -29.9060   39.8560 C   0  0  0  0  0  0  0  0  0  0  0  0
   22.7010  -28.9260   40.7500 C   0  0  0  0  0  0  0  0  0  0  0  0
   21.8450  -27.8930   41.1630 C   0  0  0  0  0  0  0  0  0  0  0  0
   22.3500  -26.8430   42.1280 C   0  0  0  0  0  0  0  0  0  0  0  0
   22.5830  -25.6370   41.5350 F   0  0  0  0  0  0  0  0  0  0  0  0
   23.5340  -27.1990   42.7000 F   0  0  0  0  0  0  0  0  0  0  0  0
   20.5310  -27.8440   40.6450 C   0  0  0  0  0  0  0  0  0  0  0  0
   19.5680  -26.7510   41.0510 C   0  0  0  0  0  0  0  0  0  0  0  0
   18.4750  -26.7020   40.2380 F   0  0  0  0  0  0  0  0  0  0  0  0
   19.0700  -26.9160   42.3100 F   0  0  0  0  0  0  0  0  0  0  0  0
   20.1050  -28.8460   39.7520 C   0  0  0  0  0  0  0  0  0  0  0  0
   20.8170  -30.5960   37.0750 O   0  0  0  0  0  0  0  0  0  0  0  0
   20.4310  -31.4550   36.0760 C   0  0  0  0  0  0  0  0  0  0  0  0
   20.8020  -31.1170   34.7730 C   0  0  0  0  0  0  0  0  0  0  0  0
   20.4400  -31.9470   33.7110 C   0  0  0  0  0  0  0  0  0  0  0  0
   19.7090  -33.1130   33.9500 C   0  0  0  0  0  0  0  0  0  0  0  0
   19.3410  -33.4470   35.2500 C   0  0  0  0  0  0  0  0  0  0  0  0
   18.6260  -34.6010   35.4130 O   0  0  0  0  0  0  0  0  0  0  0  0
   19.7040  -32.6160   36.3150 C   0  0  0  0  0  0  0  0  0  0  0  0
   19.9120  -32.8950   40.5510 H   0  0  0  0  0  0  0  0  0  0  0  0
   22.9518  -30.7039   39.5439 H   0  0  0  0  0  0  0  0  0  0  0  0
   23.7307  -28.9645   41.1351 H   0  0  0  0  0  0  0  0  0  0  0  0
   21.5444  -26.7618   42.8726 H   0  0  0  0  0  0  0  0  0  0  0  0
   20.1705  -25.8330   40.9849 H   0  0  0  0  0  0  0  0  0  0  0  0
   19.0786  -28.8125   39.3577 H   0  0  0  0  0  0  0  0  0  0  0  0
   21.3780  -30.1991   34.5841 H   0  0  0  0  0  0  0  0  0  0  0  0
   20.7309  -31.6824   32.6837 H   0  0  0  0  0  0  0  0  0  0  0  0
   19.4246  -33.7663   33.1120 H   0  0  0  0  0  0  0  0  0  0  0  0
   17.8690  -34.7610   34.8850 H   0  0  0  0  0  0  0  0  0  0  0  0
  1  2  2  0
  2  3  1  0
  3  4  1  0
  3  5  2  0
  5  6  1  0
  6  7  2  0
  7  8  1  0
  8  9  2  0
  9 10  1  0
 10 11  1  0
 10 12  1  0
  9 13  1  0
 13 14  1  0
 14 15  1  0
 14 16  1  0
 13 17  2  0
  5 18  1  0
 18 19  1  0
 19 20  2  0
 20 21  1  0
 21 22  2  0
 22 23  1  0
 23 24  1  0
 23 25  2  0
 25  2  1  0
 17  6  1  0
 25 19  1  0
  4 26  1  0
  7 27  1  0
  8 28  1  0
 10 29  1  0
 14 30  1  0
 17 31  1  0
 20 32  1  0
 21 33  1  0
 22 34  1  0
 24 35  1  0
M  END
>  <meeko>  (4) 
{"is_sidechain": [false], "free_energy": -8.8, "intermolecular_energy": -10.828, "internal_energy": -0.657}

$$$$
cand_008_out
     RDKit          3D

 35 37  0  0  0  0  0  0  0  0999 V2000
   18.7310  -34.2270   37.7480 O   0  0  0  0  0  0  0  0  0  0  0  0
   19.2480  -33.1620   37.4160 C   0  0  0  0  0  0  0  0  0  0  0  0
   19.5060  -32.1060   38.4220 C   0  0  0  0  0  0  0  0  0  0  0  0
   19.1290  -32.3730   39.7270 O   0  0  0  0  0  0  0  0  0  0  0  0
   20.0720  -30.9550   38.0160 C   0  0  0  0  0  0  0  0  0  0  0  0
   20.3640  -29.8300   38.9290 C   0  0  0  0  0  0  0  0  0  0  0  0
   19.4710  -28.7670   39.0970 C   0  0  0  0  0  0  0  0  0  0  0  0
   19.7560  -27.7240   39.9820 C   0  0  0  0  0  0  0  0  0  0  0  0
   20.9450  -27.7180   40.7290 C   0  0  0  0  0  0  0  0  0  0  0  0
   21.2230  -26.5780   41.6830 C   0  0  0  0  0  0  0  0  0  0  0  0
   20.6010  -26.7220   42.8880 F   0  0  0  0  0  0  0  0  0  0  0  0
   20.7900  -25.3820   41.1940 F   0  0  0  0  0  0  0  0  0  0  0  0
   21.8470  -28.7970   40.5900 C   0  0  0  0  0  0  0  0  0  0  0  0
   23.1390  -28.8450   41.3730 C   0  0  0  0  0  0  0  0  0  0  0  0
   22.9380  -28.6450   42.7070 F   0  0  0  0  0  0  0  0  0  0  0  0
   23.7770  -30.0470   41.2830 F   0  0  0  0  0  0  0  0  0  0  0  0
   21.5450  -29.8340   39.6870 C   0  0  0  0  0  0  0  0  0  0  0  0
   20.4210  -30.6860   36.6980 O   0  0  0  0  0  0  0  0  0  0  0  0
   20.2000  -31.6470   35.7440 C   0  0  0  0  0  0  0  0  0  0  0  0
   20.5780  -31.3390   34.4360 C   0  0  0  0  0  0  0  0  0  0  0  0
   20.3800  -32.2720   33.4170 C   0  0  0  0  0  0  0  0  0  0  0  0
   19.8060  -33.5130   33.7050 C   0  0  0  0  0  0  0  0  0  0  0  0
   19.4300  -33.8180   35.0110 C   0  0  0  0  0  0  0  0  0  0  0  0
   18.8740  -35.0480   35.2230 O   0  0  0  0  0  0  0  0  0  0  0  0
   19.6290  -32.8830   36.0310 C   0  0  0  0  0  0  0  0  0  0  0  0
   19.7760  -32.5940   40.3650 H   0  0  0  0  0  0  0  0  0  0  0  0
   18.5317  -28.7518   38.5248 H   0  0  0  0  0  0  0  0  0  0  0  0
   19.0397  -26.8969   40.0950 H   0  0  0  0  0  0  0  0  0  0  0  0
   22.3161  -26.5988   41.8040 H   0  0  0  0  0  0  0  0  0  0  0  0
   23.7469  -28.0453   40.9246 H   0  0  0  0  0  0  0  0  0  0  0  0
   22.2526  -30.6684   39.5727 H   0  0  0  0  0  0  0  0  0  0  0  0
   21.0311  -30.3627   34.2088 H   0  0  0  0  0  0  0  0  0  0  0  0
   20.6763  -32.0300   32.3857 H   0  0  0  0  0  0  0  0  0  0  0  0
   19.6513  -34.2481   32.9014 H   0  0  0  0  0  0  0  0  0  0  0  0
   18.1220  -35.1330   35.7750 H   0  0  0  0  0  0  0  0  0  0  0  0
  1  2  2  0
  2  3  1  0
  3  4  1  0
  3  5  2  0
  5  6  1  0
  6  7  2  0
  7  8  1  0
  8  9  2  0
  9 10  1  0
 10 11  1  0
 10 12  1  0
  9 13  1  0
 13 14  1  0
 14 15  1  0
 14 16  1  0
 13 17  2  0
  5 18  1  0
 18 19  1  0
 19 20  2  0
 20 21  1  0
 21 22  2  0
 22 23  1  0
 23 24  1  0
 23 25  2  0
 25  2  1  0
 17  6  1  0
 25 19  1  0
  4 26  1  0
  7 27  1  0
  8 28  1  0
 10 29  1  0
 14 30  1  0
 17 31  1  0
 20 32  1  0
 21 33  1  0
 22 34  1  0
 24 35  1  0
M  END
>  <meeko>  (5) 
{"is_sidechain": [false], "free_energy": -8.742, "intermolecular_energy": -10.942, "internal_energy": -0.471}

$$$$
cand_008_out
     RDKit          3D

 35 37  0  0  0  0  0  0  0  0999 V2000
   20.7120  -28.0560   36.5850 O   0  0  0  0  0  0  0  0  0  0  0  0
   20.6540  -28.4750   37.7390 C   0  0  0  0  0  0  0  0  0  0  0  0
   20.9210  -27.5700   38.8810 C   0  0  0  0  0  0  0  0  0  0  0  0
   21.2460  -26.2590   38.5830 O   0  0  0  0  0  0  0  0  0  0  0  0
   20.8490  -28.0700   40.1280 C   0  0  0  0  0  0  0  0  0  0  0  0
   21.1070  -27.2640   41.3400 C   0  0  0  0  0  0  0  0  0  0  0  0
   20.1210  -26.4490   41.9060 C   0  0  0  0  0  0  0  0  0  0  0  0
   20.3790  -25.7110   43.0640 C   0  0  0  0  0  0  0  0  0  0  0  0
   21.6330  -25.7730   43.6930 C   0  0  0  0  0  0  0  0  0  0  0  0
   21.8800  -24.9670   44.9490 C   0  0  0  0  0  0  0  0  0  0  0  0
   22.0850  -25.7420   46.0530 F   0  0  0  0  0  0  0  0  0  0  0  0
   20.8230  -24.1660   45.2620 F   0  0  0  0  0  0  0  0  0  0  0  0
   22.6320  -26.6100   43.1490 C   0  0  0  0  0  0  0  0  0  0  0  0
   23.9990  -26.7180   43.7870 C   0  0  0  0  0  0  0  0  0  0  0  0
   24.6200  -27.8910   43.4740 F   0  0  0  0  0  0  0  0  0  0  0  0
   24.8580  -25.7390   43.3830 F   0  0  0  0  0  0  0  0  0  0  0  0
   22.3560  -27.3390   41.9750 C   0  0  0  0  0  0  0  0  0  0  0  0
   20.5490  -29.3960   40.4160 O   0  0  0  0  0  0  0  0  0  0  0  0
   20.2900  -30.2570   39.3790 C   0  0  0  0  0  0  0  0  0  0  0  0
   19.9820  -31.5770   39.7150 C   0  0  0  0  0  0  0  0  0  0  0  0
   19.7090  -32.5040   38.7080 C   0  0  0  0  0  0  0  0  0  0  0  0
   19.7440  -32.1140   37.3670 C   0  0  0  0  0  0  0  0  0  0  0  0
   20.0520  -30.7970   37.0350 C   0  0  0  0  0  0  0  0  0  0  0  0
   20.0700  -30.4830   35.7050 O   0  0  0  0  0  0  0  0  0  0  0  0
   20.3250  -29.8680   38.0440 C   0  0  0  0  0  0  0  0  0  0  0  0
   20.8810  -25.8460   37.8260 H   0  0  0  0  0  0  0  0  0  0  0  0
   19.1296  -26.3883   41.4332 H   0  0  0  0  0  0  0  0  0  0  0  0
   19.5897  -25.0732   43.4884 H   0  0  0  0  0  0  0  0  0  0  0  0
   22.7802  -24.3814   44.7110 H   0  0  0  0  0  0  0  0  0  0  0  0
   23.7927  -26.6374   44.8645 H   0  0  0  0  0  0  0  0  0  0  0  0
   23.1385  -27.9823   41.5461 H   0  0  0  0  0  0  0  0  0  0  0  0
   19.9546  -31.8853   40.7705 H   0  0  0  0  0  0  0  0  0  0  0  0
   19.4657  -33.5441   38.9708 H   0  0  0  0  0  0  0  0  0  0  0  0
   19.5286  -32.8459   36.5746 H   0  0  0  0  0  0  0  0  0  0  0  0
   20.8040  -30.7270   35.1760 H   0  0  0  0  0  0  0  0  0  0  0  0
  1  2  2  0
  2  3  1  0
  3  4  1  0
  3  5  2  0
  5  6  1  0
  6  7  2  0
  7  8  1  0
  8  9  2  0
  9 10  1  0
 10 11  1  0
 10 12  1  0
  9 13  1  0
 13 14  1  0
 14 15  1  0
 14 16  1  0
 13 17  2  0
  5 18  1  0
 18 19  1  0
 19 20  2  0
 20 21  1  0
 21 22  2  0
 22 23  1  0
 23 24  1  0
 23 25  2  0
 25  2  1  0
 17  6  1  0
 25 19  1  0
  4 26  1  0
  7 27  1  0
  8 28  1  0
 10 29  1  0
 14 30  1  0
 17 31  1  0
 20 32  1  0
 21 33  1  0
 22 34  1  0
 24 35  1  0
M  END
>  <meeko>  (6) 
{"is_sidechain": [false], "free_energy": -8.697, "intermolecular_energy": -10.736, "internal_energy": -0.622}

$$$$
cand_008_out
     RDKit          3D

 35 37  0  0  0  0  0  0  0  0999 V2000
   24.3330  -28.6650   43.5990 O   0  0  0  0  0  0  0  0  0  0  0  0
   23.3930  -28.2800   42.9060 C   0  0  0  0  0  0  0  0  0  0  0  0
   23.0530  -28.9790   41.6440 C   0  0  0  0  0  0  0  0  0  0  0  0
   23.8450  -30.0580   41.2890 O   0  0  0  0  0  0  0  0  0  0  0  0
   22.0190  -28.5240   40.9150 C   0  0  0  0  0  0  0  0  0  0  0  0
   21.5990  -29.1350   39.6360 C   0  0  0  0  0  0  0  0  0  0  0  0
   22.0670  -28.6630   38.4050 C   0  0  0  0  0  0  0  0  0  0  0  0
   21.6750  -29.2680   37.2090 C   0  0  0  0  0  0  0  0  0  0  0  0
   20.8040  -30.3700   37.2110 C   0  0  0  0  0  0  0  0  0  0  0  0
   20.4010  -31.0070   35.9000 C   0  0  0  0  0  0  0  0  0  0  0  0
   21.4430  -31.1500   35.0300 F   0  0  0  0  0  0  0  0  0  0  0  0
   19.4730  -30.2660   35.2320 F   0  0  0  0  0  0  0  0  0  0  0  0
   20.3410  -30.8750   38.4470 C   0  0  0  0  0  0  0  0  0  0  0  0
   19.4050  -32.0610   38.5080 C   0  0  0  0  0  0  0  0  0  0  0  0
   20.0180  -33.1730   39.0040 F   0  0  0  0  0  0  0  0  0  0  0  0
   18.3290  -31.8530   39.3200 F   0  0  0  0  0  0  0  0  0  0  0  0
   20.7400  -30.2450   39.6410 C   0  0  0  0  0  0  0  0  0  0  0  0
   21.2480  -27.4220   41.2660 O   0  0  0  0  0  0  0  0  0  0  0  0
   21.5340  -26.7580   42.4320 C   0  0  0  0  0  0  0  0  0  0  0  0
   20.7270  -25.6650   42.7520 C   0  0  0  0  0  0  0  0  0  0  0  0
   20.9640  -24.9450   43.9240 C   0  0  0  0  0  0  0  0  0  0  0  0
   22.0070  -25.3170   44.7760 C   0  0  0  0  0  0  0  0  0  0  0  0
   22.8100  -26.4070   44.4550 C   0  0  0  0  0  0  0  0  0  0  0  0
   23.8120  -26.7160   45.3310 O   0  0  0  0  0  0  0  0  0  0  0  0
   22.5720  -27.1290   43.2810 C   0  0  0  0  0  0  0  0  0  0  0  0
   23.7400  -30.8790   41.7260 H   0  0  0  0  0  0  0  0  0  0  0  0
   22.7531  -27.8036   38.3788 H   0  0  0  0  0  0  0  0  0  0  0  0
   22.0532  -28.8766   36.2531 H   0  0  0  0  0  0  0  0  0  0  0  0
   20.0031  -31.9884   36.1974 H   0  0  0  0  0  0  0  0  0  0  0  0
   19.0871  -32.1986   37.4640 H   0  0  0  0  0  0  0  0  0  0  0  0
   20.3694  -30.6322   40.6016 H   0  0  0  0  0  0  0  0  0  0  0  0
   19.9057  -25.3716   42.0817 H   0  0  0  0  0  0  0  0  0  0  0  0
   20.3287  -24.0834   44.1772 H   0  0  0  0  0  0  0  0  0  0  0  0
   22.1931  -24.7489   45.6994 H   0  0  0  0  0  0  0  0  0  0  0  0
   23.6450  -27.2970   46.0480 H   0  0  0  0  0  0  0  0  0  0  0  0
  1  2  2  0
  2  3  1  0
  3  4  1  0
  3  5  2  0
  5  6  1  0
  6  7  2  0
  7  8  1  0
  8  9  2  0
  9 10  1  0
 10 11  1  0
 10 12  1  0
  9 13  1  0
 13 14  1  0
 14 15  1  0
 14 16  1  0
 13 17  2  0
  5 18  1  0
 18 19  1  0
 19 20  2  0
 20 21  1  0
 21 22  2  0
 22 23  1  0
 23 24  1  0
 23 25  2  0
 25  2  1  0
 17  6  1  0
 25 19  1  0
  4 26  1  0
  7 27  1  0
  8 28  1  0
 10 29  1  0
 14 30  1  0
 17 31  1  0
 20 32  1  0
 21 33  1  0
 22 34  1  0
 24 35  1  0
M  END
>  <meeko>  (7) 
{"is_sidechain": [false], "free_energy": -8.691, "intermolecular_energy": -10.713, "internal_energy": -0.638}

$$$$
cand_008_out
     RDKit          3D

 35 37  0  0  0  0  0  0  0  0999 V2000
   23.4060  -28.4310   41.5130 O   0  0  0  0  0  0  0  0  0  0  0  0
   22.3130  -28.4830   40.9550 C   0  0  0  0  0  0  0  0  0  0  0  0
   21.9790  -29.6130   40.0570 C   0  0  0  0  0  0  0  0  0  0  0  0
   22.9520  -30.5800   39.8740 O   0  0  0  0  0  0  0  0  0  0  0  0
   20.7720  -29.6290   39.4640 C   0  0  0  0  0  0  0  0  0  0  0  0
   20.3370  -30.6990   38.5410 C   0  0  0  0  0  0  0  0  0  0  0  0
   20.4880  -30.5830   37.1550 C   0  0  0  0  0  0  0  0  0  0  0  0
   20.0910  -31.6150   36.3020 C   0  0  0  0  0  0  0  0  0  0  0  0
   19.5340  -32.7990   36.8130 C   0  0  0  0  0  0  0  0  0  0  0  0
   19.1180  -33.9010   35.8640 C   0  0  0  0  0  0  0  0  0  0  0  0
   19.9560  -34.9770   35.8920 F   0  0  0  0  0  0  0  0  0  0  0  0
   19.1080  -33.4840   34.5670 F   0  0  0  0  0  0  0  0  0  0  0  0
   19.3980  -32.9430   38.2120 C   0  0  0  0  0  0  0  0  0  0  0  0
   18.8090  -34.1970   38.8180 C   0  0  0  0  0  0  0  0  0  0  0  0
   19.6910  -35.2370   38.8020 F   0  0  0  0  0  0  0  0  0  0  0  0
   18.4560  -34.0460   40.1270 F   0  0  0  0  0  0  0  0  0  0  0  0
   19.7960  -31.8870   39.0560 C   0  0  0  0  0  0  0  0  0  0  0  0
   19.8120  -28.6380   39.6320 O   0  0  0  0  0  0  0  0  0  0  0  0
   20.0890  -27.5820   40.4630 C   0  0  0  0  0  0  0  0  0  0  0  0
   19.0920  -26.6160   40.6120 C   0  0  0  0  0  0  0  0  0  0  0  0
   19.3090  -25.5150   41.4420 C   0  0  0  0  0  0  0  0  0  0  0  0
   20.5210  -25.3790   42.1230 C   0  0  0  0  0  0  0  0  0  0  0  0
   21.5140  -26.3440   41.9730 C   0  0  0  0  0  0  0  0  0  0  0  0
   22.6750  -26.1490   42.6670 O   0  0  0  0  0  0  0  0  0  0  0  0
   21.2960  -27.4470   41.1420 C   0  0  0  0  0  0  0  0  0  0  0  0
   23.7420  -30.3690   39.4170 H   0  0  0  0  0  0  0  0  0  0  0  0
   20.9252  -29.6668   36.7315 H   0  0  0  0  0  0  0  0  0  0  0  0
   20.2162  -31.4992   35.2153 H   0  0  0  0  0  0  0  0  0  0  0  0
   18.1124  -34.1813   36.2107 H   0  0  0  0  0  0  0  0  0  0  0  0
   17.9247  -34.3987   38.1957 H   0  0  0  0  0  0  0  0  0  0  0  0
   19.6798  -31.9965   40.1444 H   0  0  0  0  0  0  0  0  0  0  0  0
   18.1372  -26.7224   40.0762 H   0  0  0  0  0  0  0  0  0  0  0  0
   18.5243  -24.7532   41.5600 H   0  0  0  0  0  0  0  0  0  0  0  0
   20.6909  -24.5109   42.7769 H   0  0  0  0  0  0  0  0  0  0  0  0
   23.3500  -26.7990   42.6410 H   0  0  0  0  0  0  0  0  0  0  0  0
  1  2  2  0
  2  3  1  0
  3  4  1  0
  3  5  2  0
  5  6  1  0
  6  7  2  0
  7  8  1  0
  8  9  2  0
  9 10  1  0
 10 11  1  0
 10 12  1  0
  9 13  1  0
 13 14  1  0
 14 15  1  0
 14 16  1  0
 13 17  2  0
  5 18  1  0
 18 19  1  0
 19 20  2  0
 20 21  1  0
 21 22  2  0
 22 23  1  0
 23 24  1  0
 23 25  2  0
 25  2  1  0
 17  6  1  0
 25 19  1  0
  4 26  1  0
  7 27  1  0
  8 28  1  0
 10 29  1  0
 14 30  1  0
 17 31  1  0
 20 32  1  0
 21 33  1  0
 22 34  1  0
 24 35  1  0
M  END
>  <meeko>  (8) 
{"is_sidechain": [false], "free_energy": -8.452, "intermolecular_energy": -10.373, "internal_energy": -0.683}

$$$$
cand_008_out
     RDKit          3D

 35 37  0  0  0  0  0  0  0  0999 V2000
   24.3430  -28.4250   43.5790 O   0  0  0  0  0  0  0  0  0  0  0  0
   23.3700  -28.0810   42.9110 C   0  0  0  0  0  0  0  0  0  0  0  0
   23.0360  -28.7870   41.6520 C   0  0  0  0  0  0  0  0  0  0  0  0
   23.8700  -29.8240   41.2710 O   0  0  0  0  0  0  0  0  0  0  0  0
   21.9640  -28.3780   40.9490 C   0  0  0  0  0  0  0  0  0  0  0  0
   21.5450  -28.9990   39.6760 C   0  0  0  0  0  0  0  0  0  0  0  0
   21.4610  -30.3880   39.5260 C   0  0  0  0  0  0  0  0  0  0  0  0
   21.0410  -30.9550   38.3200 C   0  0  0  0  0  0  0  0  0  0  0  0
   20.6870  -30.1460   37.2290 C   0  0  0  0  0  0  0  0  0  0  0  0
   20.2320  -30.7890   35.9380 C   0  0  0  0  0  0  0  0  0  0  0  0
   19.7490  -32.0530   36.1100 F   0  0  0  0  0  0  0  0  0  0  0  0
   21.2480  -30.9100   35.0380 F   0  0  0  0  0  0  0  0  0  0  0  0
   20.7420  -28.7410   37.3700 C   0  0  0  0  0  0  0  0  0  0  0  0
   20.3690  -27.8220   36.2290 C   0  0  0  0  0  0  0  0  0  0  0  0
   20.2080  -26.5320   36.6410 F   0  0  0  0  0  0  0  0  0  0  0  0
   21.3170  -27.7700   35.2500 F   0  0  0  0  0  0  0  0  0  0  0  0
   21.1770  -28.1890   38.5910 C   0  0  0  0  0  0  0  0  0  0  0  0
   21.1500  -27.3160   41.3270 O   0  0  0  0  0  0  0  0  0  0  0  0
   21.4300  -26.6470   42.4910 C   0  0  0  0  0  0  0  0  0  0  0  0
   20.5790  -25.5960   42.8370 C   0  0  0  0  0  0  0  0  0  0  0  0
   20.8080  -24.8730   44.0090 C   0  0  0  0  0  0  0  0  0  0  0  0
   21.8860  -25.2000   44.8350 C   0  0  0  0  0  0  0  0  0  0  0  0
   22.7330  -26.2480   44.4870 C   0  0  0  0  0  0  0  0  0  0  0  0
   23.7690  -26.5140   45.3380 O   0  0  0  0  0  0  0  0  0  0  0  0
   22.5040  -26.9730   43.3130 C   0  0  0  0  0  0  0  0  0  0  0  0
   23.7990  -30.1890   40.4120 H   0  0  0  0  0  0  0  0  0  0  0  0
   21.7292  -31.0420   40.3688 H   0  0  0  0  0  0  0  0  0  0  0  0
   20.9871  -32.0495   38.2244 H   0  0  0  0  0  0  0  0  0  0  0  0
   19.4422  -30.1156   35.5738 H   0  0  0  0  0  0  0  0  0  0  0  0
   19.4319  -28.2499   35.8434 H   0  0  0  0  0  0  0  0  0  0  0  0
   21.2295  -27.0953   38.6964 H   0  0  0  0  0  0  0  0  0  0  0  0
   19.7296  -25.3380   42.1874 H   0  0  0  0  0  0  0  0  0  0  0  0
   20.1384  -24.0443   44.2826 H   0  0  0  0  0  0  0  0  0  0  0  0
   22.0651  -24.6302   45.7587 H   0  0  0  0  0  0  0  0  0  0  0  0
   24.1500  -25.8230   45.8430 H   0  0  0  0  0  0  0  0  0  0  0  0
  1  2  2  0
  2  3  1  0
  3  4  1  0
  3  5  2  0
  5  6  1  0
  6  7  2  0
  7  8  1  0
  8  9  2  0
  9 10  1  0
 10 11  1  0
 10 12  1  0
  9 13  1  0
 13 14  1  0
 14 15  1  0
 14 16  1  0
 13 17  2  0
  5 18  1  0
 18 19  1  0
 19 20  2  0
 20 21  1  0
 21 22  2  0
 22 23  1  0
 23 24  1  0
 23 25  2  0
 25  2  1  0
 17  6  1  0
 25 19  1  0
  4 26  1  0
  7 27  1  0
  8 28  1  0
 10 29  1  0
 14 30  1  0
 17 31  1  0
 20 32  1  0
 21 33  1  0
 22 34  1  0
 24 35  1  0
M  END
>  <meeko>  (9) 
{"is_sidechain": [false], "free_energy": -8.275, "intermolecular_energy": -10.402, "internal_energy": -0.436}

$$$$
