cand_001_out
     RDKit          3D

 45 48  0  0  0  0  0  0  0  0999 V2000
   20.3160  -25.5500   41.2960 C   0  0  0  0  0  0  0  0  0  0  0  0
   20.1930  -26.8810   40.6070 C   0  0  0  0  0  0  0  0  0  0  0  0
   18.9390  -27.2680   40.1100 C   0  0  0  0  0  0  0  0  0  0  0  0
   18.7750  -28.4810   39.4350 C   0  0  0  0  0  0  0  0  0  0  0  0
   19.8630  -29.3340   39.2270 C   0  0  0  0  0  0  0  0  0  0  0  0
   19.6680  -30.6200   38.5220 C   0  0  0  0  0  0  0  0  0  0  0  0
   19.2410  -31.6390   39.3670 O   0  0  0  0  0  0  0  0  0  0  0  0
   19.0200  -32.8860   38.8420 C   0  0  0  0  0  0  0  0  0  0  0  0
   18.6080  -33.8830   39.7270 C   0  0  0  0  0  0  0  0  0  0  0  0
   18.3640  -35.1740   39.2570 C   0  0  0  0  0  0  0  0  0  0  0  0
   18.5310  -35.4700   37.9030 C   0  0  0  0  0  0  0  0  0  0  0  0
   18.9420  -34.4740   37.0210 C   0  0  0  0  0  0  0  0  0  0  0  0
   19.0850  -34.8320   35.7090 O   0  0  0  0  0  0  0  0  0  0  0  0
   19.1870  -33.1810   37.4930 C   0  0  0  0  0  0  0  0  0  0  0  0
   19.6210  -32.1060   36.5990 C   0  0  0  0  0  0  0  0  0  0  0  0
   19.7830  -32.2850   35.3940 O   0  0  0  0  0  0  0  0  0  0  0  0
   19.8610  -30.7730   37.2000 C   0  0  0  0  0  0  0  0  0  0  0  0
   20.2570  -29.7600   36.3440 O   0  0  0  0  0  0  0  0  0  0  0  0
   21.1150  -28.9510   39.7270 C   0  0  0  0  0  0  0  0  0  0  0  0
   21.3010  -27.7300   40.4070 C   0  0  0  0  0  0  0  0  0  0  0  0
   22.6990  -27.3770   40.8840 C   0  0  0  0  0  0  0  0  0  0  0  0
   23.0750  -27.9430   42.2360 C   0  0  0  0  0  0  0  0  0  0  0  0
   23.8380  -29.1190   42.3200 C   0  0  0  0  0  0  0  0  0  0  0  0
   24.2110  -29.6370   43.5620 C   0  0  0  0  0  0  0  0  0  0  0  0
   23.8350  -28.9840   44.7330 C   0  0  0  0  0  0  0  0  0  0  0  0
   23.0880  -27.8090   44.6640 C   0  0  0  0  0  0  0  0  0  0  0  0
   22.7150  -27.2890   43.4240 C   0  0  0  0  0  0  0  0  0  0  0  0
   20.3023  -25.6986   42.3858 H   0  0  0  0  0  0  0  0  0  0  0  0
   21.2622  -25.0715   41.0031 H   0  0  0  0  0  0  0  0  0  0  0  0
   19.4735  -24.9062   41.0031 H   0  0  0  0  0  0  0  0  0  0  0  0
   18.0718  -26.6067   40.2538 H   0  0  0  0  0  0  0  0  0  0  0  0
   17.7799  -28.7673   39.0637 H   0  0  0  0  0  0  0  0  0  0  0  0
   18.4757  -33.6515   40.7942 H   0  0  0  0  0  0  0  0  0  0  0  0
   18.0394  -35.9600   39.9548 H   0  0  0  0  0  0  0  0  0  0  0  0
   18.3383  -36.4880   37.5336 H   0  0  0  0  0  0  0  0  0  0  0  0
   19.8600  -34.5910   35.2400 H   0  0  0  0  0  0  0  0  0  0  0  0
   19.6640  -29.0670   36.1320 H   0  0  0  0  0  0  0  0  0  0  0  0
   21.9757  -29.6211   39.5851 H   0  0  0  0  0  0  0  0  0  0  0  0
   23.4183  -27.7563   40.1432 H   0  0  0  0  0  0  0  0  0  0  0  0
   22.7198  -26.2825   40.9922 H   0  0  0  0  0  0  0  0  0  0  0  0
   24.1446  -29.6368   41.3992 H   0  0  0  0  0  0  0  0  0  0  0  0
   24.8029  -30.5626   43.6154 H   0  0  0  0  0  0  0  0  0  0  0  0
   24.1269  -29.3946   45.7108 H   0  0  0  0  0  0  0  0  0  0  0  0
   22.7922  -27.2911   45.5883 H   0  0  0  0  0  0  0  0  0  0  0  0
   22.1328  -26.3569   43.3774 H   0  0  0  0  0  0  0  0  0  0  0  0
  1  2  1  0
  2  3  2  0
  3  4  1  0
  4  5  2  0
  5  6  1  0
  6  7  1  0
  7  8  1  0
  8  9  2  0
  9 10  1  0
 10 11  2  0
 11 12  1  0
 12 13  1  0
 12 14  2  0
 14 15  1  0
 15 16  2  0
 15 17  1  0
 17 18  1  0
  5 19  1  0
 19 20  2  0
 20 21  1  0
 21 22  1  0
 22 23  2  0
 23 24  1  0
 24 25  2  0
 25 26  1  0
 26 27  2  0
 20  2  1  0
 27 22  1  0
 17  6  2  0
 14  8  1  0
  1 28  1  0
  1 29  1  0
  1 30  1  0
  3 31  1  0
  4 32  1  0
  9 33  1  0
 10 34  1  0
 11 35  1  0
 13 36  1  0
 18 37  1  0
 19 38  1  0
 21 39  1  0
 21 40  1  0
 23 41  1  0
 24 42  1  0
 25 43  1  0
 26 44  1  0
 27 45  1  0
M  END
>  <meeko>  (1) 
{"is_sidechain": [false], "free_energy": -9.985, "intermolecular_energy": -12.32, "internal_energy": -1.056}

$$$$
cand_001_out
     RDKit          3D

 45 48  0  0  0  0  0  0  0  0999 V2000
   20.5530  -24.9860   42.8720 C   0  0  0  0  0  0  0  0  0  0  0  0
   20.4970  -26.1640   41.9390 C   0  0  0  0  0  0  0  0  0  0  0  0
   19.3020  -26.4200   41.2490 C   0  0  0  0  0  0  0  0  0  0  0  0
   19.2040  -27.4830   40.3470 C   0  0  0  0  0  0  0  0  0  0  0  0
   20.3030  -28.3120   40.0990 C   0  0  0  0  0  0  0  0  0  0  0  0
   20.1760  -29.4400   39.1520 C   0  0  0  0  0  0  0  0  0  0  0  0
   19.5400  -30.5430   39.7090 O   0  0  0  0  0  0  0  0  0  0  0  0
   19.3560  -31.6620   38.9360 C   0  0  0  0  0  0  0  0  0  0  0  0
   18.7260  -32.7520   39.5380 C   0  0  0  0  0  0  0  0  0  0  0  0
   18.5060  -33.9210   38.8080 C   0  0  0  0  0  0  0  0  0  0  0  0
   18.9150  -34.0010   37.4750 C   0  0  0  0  0  0  0  0  0  0  0  0
   19.5430  -32.9120   36.8760 C   0  0  0  0  0  0  0  0  0  0  0  0
   19.9170  -33.0580   35.5680 O   0  0  0  0  0  0  0  0  0  0  0  0
   19.7640  -31.7420   37.6080 C   0  0  0  0  0  0  0  0  0  0  0  0
   20.4200  -30.5750   37.0160 C   0  0  0  0  0  0  0  0  0  0  0  0
   20.8010  -30.5650   35.8480 O   0  0  0  0  0  0  0  0  0  0  0  0
   20.6130  -29.3870   37.8800 C   0  0  0  0  0  0  0  0  0  0  0  0
   21.2220  -28.2850   37.3070 O   0  0  0  0  0  0  0  0  0  0  0  0
   21.4950  -28.0600   40.7900 C   0  0  0  0  0  0  0  0  0  0  0  0
   21.6150  -26.9900   41.7020 C   0  0  0  0  0  0  0  0  0  0  0  0
   22.9550  -26.7690   42.3800 C   0  0  0  0  0  0  0  0  0  0  0  0
   23.6180  -28.0210   42.9120 C   0  0  0  0  0  0  0  0  0  0  0  0
   23.7910  -29.1350   42.0770 C   0  0  0  0  0  0  0  0  0  0  0  0
   24.4230  -30.2870   42.5500 C   0  0  0  0  0  0  0  0  0  0  0  0
   24.8950  -30.3370   43.8590 C   0  0  0  0  0  0  0  0  0  0  0  0
   24.7410  -29.2330   44.6960 C   0  0  0  0  0  0  0  0  0  0  0  0
   24.1110  -28.0800   44.2240 C   0  0  0  0  0  0  0  0  0  0  0  0
   20.5361  -25.3415   43.9128 H   0  0  0  0  0  0  0  0  0  0  0  0
   21.4791  -24.4200   42.6928 H   0  0  0  0  0  0  0  0  0  0  0  0
   19.6848  -24.3348   42.6928 H   0  0  0  0  0  0  0  0  0  0  0  0
   18.4286  -25.7737   41.4209 H   0  0  0  0  0  0  0  0  0  0  0  0
   18.2529  -27.6696   39.8268 H   0  0  0  0  0  0  0  0  0  0  0  0
   18.4029  -32.6898   40.5876 H   0  0  0  0  0  0  0  0  0  0  0  0
   18.0100  -34.7802   39.2830 H   0  0  0  0  0  0  0  0  0  0  0  0
   18.7414  -34.9223   36.8995 H   0  0  0  0  0  0  0  0  0  0  0  0
   20.7570  -33.4150   35.3580 H   0  0  0  0  0  0  0  0  0  0  0  0
   20.7900  -27.8140   36.6220 H   0  0  0  0  0  0  0  0  0  0  0  0
   22.3619  -28.7146   40.6169 H   0  0  0  0  0  0  0  0  0  0  0  0
   23.6350  -26.3073   41.6490 H   0  0  0  0  0  0  0  0  0  0  0  0
   22.7552  -26.1322   43.2544 H   0  0  0  0  0  0  0  0  0  0  0  0
   23.4254  -29.1008   41.0401 H   0  0  0  0  0  0  0  0  0  0  0  0
   24.5481  -31.1562   41.8875 H   0  0  0  0  0  0  0  0  0  0  0  0
   25.3887  -31.2464   44.2321 H   0  0  0  0  0  0  0  0  0  0  0  0
   25.1162  -29.2703   45.7294 H   0  0  0  0  0  0  0  0  0  0  0  0
   24.0001  -27.2095   44.8872 H   0  0  0  0  0  0  0  0  0  0  0  0
  1  2  1  0
  2  3  2  0
  3  4  1  0
  4  5  2  0
  5  6  1  0
  6  7  1  0
  7  8  1  0
  8  9  2  0
  9 10  1  0
 10 11  2  0
 11 12  1  0
 12 13  1  0
 12 14  2  0
 14 15  1  0
 15 16  2  0
 15 17  1  0
 17 18  1  0
  5 19  1  0
 19 20  2  0
 20 21  1  0
 21 22  1  0
 22 23  2  0
 23 24  1  0
 24 25  2  0
 25 26  1  0
 26 27  2  0
 20  2  1  0
 27 22  1  0
 17  6  2  0
 14  8  1  0
  1 28  1  0
  1 29  1  0
  1 30  1  0
  3 31  1  0
  4 32  1  0
  9 33  1  0
 10 34  1  0
 11 35  1  0
 13 36  1  0
 18 37  1  0
 19 38  1  0
 21 39  1  0
 21 40  1  0
 23 41  1  0
 24 42  1  0
 25 43  1  0
 26 44  1  0
 27 45  1  0
M  END
>  <meeko>  (2) 
{"is_sidechain": [false], "free_energy": -9.73, "intermolecular_energy": -12.74, "internal_energy": -0.322}

$$$$
cand_001_out
     RDKit          3D

 45 48  0  0  0  0  0  0  0  0999 V2000
   22.4180  -26.7900   42.2740 C   0  0  0  0  0  0  0  0  0  0  0  0
   21.8680  -27.7810   41.2860 C   0  0  0  0  0  0  0  0  0  0  0  0
   22.7080  -28.8070   40.8250 C   0  0  0  0  0  0  0  0  0  0  0  0
   22.2400  -29.7730   39.9300 C   0  0  0  0  0  0  0  0  0  0  0  0
   20.9160  -29.7480   39.4800 C   0  0  0  0  0  0  0  0  0  0  0  0
   20.4430  -30.7700   38.5220 C   0  0  0  0  0  0  0  0  0  0  0  0
   19.9840  -31.9240   39.1480 O   0  0  0  0  0  0  0  0  0  0  0  0
   19.5150  -32.9550   38.3740 C   0  0  0  0  0  0  0  0  0  0  0  0
   19.0780  -34.1000   39.0410 C   0  0  0  0  0  0  0  0  0  0  0  0
   18.5870  -35.1850   38.3140 C   0  0  0  0  0  0  0  0  0  0  0  0
   18.5310  -35.1260   36.9200 C   0  0  0  0  0  0  0  0  0  0  0  0
   18.9670  -33.9830   36.2560 C   0  0  0  0  0  0  0  0  0  0  0  0
   18.8840  -33.9920   34.8910 O   0  0  0  0  0  0  0  0  0  0  0  0
   19.4590  -32.8960   36.9850 C   0  0  0  0  0  0  0  0  0  0  0  0
   19.9270  -31.6760   36.3270 C   0  0  0  0  0  0  0  0  0  0  0  0
   19.9030  -31.5440   35.1050 O   0  0  0  0  0  0  0  0  0  0  0  0
   20.4380  -30.5850   37.1900 C   0  0  0  0  0  0  0  0  0  0  0  0
   20.8650  -29.4310   36.5580 O   0  0  0  0  0  0  0  0  0  0  0  0
   20.0780  -28.7210   39.9350 C   0  0  0  0  0  0  0  0  0  0  0  0
   20.5310  -27.7390   40.8420 C   0  0  0  0  0  0  0  0  0  0  0  0
   19.5460  -26.6830   41.3110 C   0  0  0  0  0  0  0  0  0  0  0  0
   19.4640  -25.4510   40.4370 C   0  0  0  0  0  0  0  0  0  0  0  0
   19.4240  -24.1750   41.0200 C   0  0  0  0  0  0  0  0  0  0  0  0
   19.3730  -23.0300   40.2220 C   0  0  0  0  0  0  0  0  0  0  0  0
   19.3680  -23.1450   38.8340 C   0  0  0  0  0  0  0  0  0  0  0  0
   19.4200  -24.4060   38.2420 C   0  0  0  0  0  0  0  0  0  0  0  0
   19.4720  -25.5510   39.0370 C   0  0  0  0  0  0  0  0  0  0  0  0
   22.2214  -27.1442   43.2967 H   0  0  0  0  0  0  0  0  0  0  0  0
   23.5028  -26.6862   42.1241 H   0  0  0  0  0  0  0  0  0  0  0  0
   21.9322  -25.8146   42.1241 H   0  0  0  0  0  0  0  0  0  0  0  0
   23.7504  -28.8513   41.1735 H   0  0  0  0  0  0  0  0  0  0  0  0
   22.9203  -30.5615   39.5757 H   0  0  0  0  0  0  0  0  0  0  0  0
   19.1205  -34.1473   40.1392 H   0  0  0  0  0  0  0  0  0  0  0  0
   18.2435  -36.0881   38.8397 H   0  0  0  0  0  0  0  0  0  0  0  0
   18.1430  -35.9814   36.3475 H   0  0  0  0  0  0  0  0  0  0  0  0
   19.4930  -33.4950   34.3810 H   0  0  0  0  0  0  0  0  0  0  0  0
   21.7800  -29.2370   36.5040 H   0  0  0  0  0  0  0  0  0  0  0  0
   19.0392  -28.6791   39.5756 H   0  0  0  0  0  0  0  0  0  0  0  0
   18.5468  -27.1414   41.3489 H   0  0  0  0  0  0  0  0  0  0  0  0
   19.9072  -26.3402   42.2918 H   0  0  0  0  0  0  0  0  0  0  0  0
   19.4329  -24.0758   42.1155 H   0  0  0  0  0  0  0  0  0  0  0  0
   19.3367  -22.0355   40.6906 H   0  0  0  0  0  0  0  0  0  0  0  0
   19.3231  -22.2428   38.2063 H   0  0  0  0  0  0  0  0  0  0  0  0
   19.4200  -24.4983   37.1459 H   0  0  0  0  0  0  0  0  0  0  0  0
   19.5197  -26.5420   38.5621 H   0  0  0  0  0  0  0  0  0  0  0  0
  1  2  1  0
  2  3  2  0
  3  4  1  0
  4  5  2  0
  5  6  1  0
  6  7  1  0
  7  8  1  0
  8  9  2  0
  9 10  1  0
 10 11  2  0
 11 12  1  0
 12 13  1  0
 12 14  2  0
 14 15  1  0
 15 16  2  0
 15 17  1  0
 17 18  1  0
  5 19  1  0
 19 20  2  0
 20 21  1  0
 21 22  1  0
 22 23  2  0
 23 24  1  0
 24 25  2  0
 25 26  1  0
 26 27  2  0
 20  2  1  0
 27 22  1  0
 17  6  2  0
 14  8  1  0
  1 28  1  0
  1 29  1  0
  1 30  1  0
  3 31  1  0
  4 32  1  0
  9 33  1  0
 10 34  1  0
 11 35  1  0
 13 36  1  0
 18 37  1  0
 19 38  1  0
 21 39  1  0
 21 40  1  0
 23 41  1  0
 24 42  1  0
 25 43  1  0
 26 44  1  0
 27 45  1  0
M  END
>  <meeko>  (3) 
{"is_sidechain": [false], "free_energy": -9.59, "intermolecular_energy": -11.97, "internal_energy": -0.918}

$$$$
cand_001_out
     RDKit          3D

 45 48  0  0  0  0  0  0  0  0999 V2000
   20.2240  -26.1640   41.1210 C   0  0  0  0  0  0  0  0  0  0  0  0
   20.1260  -27.4320   40.3190 C   0  0  0  0  0  0  0  0  0  0  0  0
   18.8650  -27.8400   39.8560 C   0  0  0  0  0  0  0  0  0  0  0  0
   18.7210  -28.9940   39.0810 C   0  0  0  0  0  0  0  0  0  0  0  0
   19.8350  -29.7660   38.7360 C   0  0  0  0  0  0  0  0  0  0  0  0
   19.6610  -30.9910   37.9270 C   0  0  0  0  0  0  0  0  0  0  0  0
   20.0800  -30.8320   36.6110 O   0  0  0  0  0  0  0  0  0  0  0  0
   19.9740  -31.8950   35.7490 C   0  0  0  0  0  0  0  0  0  0  0  0
   20.3910  -31.6880   34.4340 C   0  0  0  0  0  0  0  0  0  0  0  0
   20.3130  -32.7290   33.5070 C   0  0  0  0  0  0  0  0  0  0  0  0
   19.8170  -33.9750   33.8940 C   0  0  0  0  0  0  0  0  0  0  0  0
   19.4010  -34.1800   35.2070 C   0  0  0  0  0  0  0  0  0  0  0  0
   18.9270  -35.4240   35.5180 O   0  0  0  0  0  0  0  0  0  0  0  0
   19.4800  -33.1370   36.1350 C   0  0  0  0  0  0  0  0  0  0  0  0
   19.0540  -33.3100   37.5240 C   0  0  0  0  0  0  0  0  0  0  0  0
   18.6140  -34.3780   37.9430 O   0  0  0  0  0  0  0  0  0  0  0  0
   19.1710  -32.1400   38.4260 C   0  0  0  0  0  0  0  0  0  0  0  0
   18.7770  -32.3180   39.7410 O   0  0  0  0  0  0  0  0  0  0  0  0
   21.0930  -29.3630   39.2020 C   0  0  0  0  0  0  0  0  0  0  0  0
   21.2610  -28.1990   39.9810 C   0  0  0  0  0  0  0  0  0  0  0  0
   22.6650  -27.8160   40.4130 C   0  0  0  0  0  0  0  0  0  0  0  0
   23.0720  -28.3150   41.7820 C   0  0  0  0  0  0  0  0  0  0  0  0
   23.8280  -29.4910   41.9080 C   0  0  0  0  0  0  0  0  0  0  0  0
   24.2300  -29.9480   43.1650 C   0  0  0  0  0  0  0  0  0  0  0  0
   23.8870  -29.2320   44.3100 C   0  0  0  0  0  0  0  0  0  0  0  0
   23.1470  -28.0570   44.1990 C   0  0  0  0  0  0  0  0  0  0  0  0
   22.7460  -27.5980   42.9430 C   0  0  0  0  0  0  0  0  0  0  0  0
   20.2053  -26.4063   42.1938 H   0  0  0  0  0  0  0  0  0  0  0  0
   21.1647  -25.6482   40.8780 H   0  0  0  0  0  0  0  0  0  0  0  0
   19.3737  -25.5098   40.8780 H   0  0  0  0  0  0  0  0  0  0  0  0
   17.9765  -27.2421   40.1071 H   0  0  0  0  0  0  0  0  0  0  0  0
   17.7209  -29.2984   38.7387 H   0  0  0  0  0  0  0  0  0  0  0  0
   20.7807  -30.7060   34.1279 H   0  0  0  0  0  0  0  0  0  0  0  0
   20.6429  -32.5671   32.4702 H   0  0  0  0  0  0  0  0  0  0  0  0
   19.7548  -34.7942   33.1625 H   0  0  0  0  0  0  0  0  0  0  0  0
   18.5470  -35.9610   34.8510 H   0  0  0  0  0  0  0  0  0  0  0  0
   18.1480  -31.7390   40.1240 H   0  0  0  0  0  0  0  0  0  0  0  0
   21.9750  -29.9715   38.9534 H   0  0  0  0  0  0  0  0  0  0  0  0
   23.3721  -28.2255   39.6766 H   0  0  0  0  0  0  0  0  0  0  0  0
   22.6800  -26.7176   40.4696 H   0  0  0  0  0  0  0  0  0  0  0  0
   24.1066  -30.0583   41.0077 H   0  0  0  0  0  0  0  0  0  0  0  0
   24.8178  -30.8738   43.2511 H   0  0  0  0  0  0  0  0  0  0  0  0
   24.2001  -29.5941   45.3004 H   0  0  0  0  0  0  0  0  0  0  0  0
   22.8782  -27.4899   45.1024 H   0  0  0  0  0  0  0  0  0  0  0  0
   22.1688  -26.6650   42.8629 H   0  0  0  0  0  0  0  0  0  0  0  0
  1  2  1  0
  2  3  2  0
  3  4  1  0
  4  5  2  0
  5  6  1  0
  6  7  1  0
  7  8  1  0
  8  9  2  0
  9 10  1  0
 10 11  2  0
 11 12  1  0
 12 13  1  0
 12 14  2  0
 14 15  1  0
 15 16  2  0
 15 17  1  0
 17 18  1  0
  5 19  1  0
 19 20  2  0
 20 21  1  0
 21 22  1  0
 22 23  2  0
 23 24  1  0
 24 25  2  0
 25 26  1  0
 26 27  2  0
 20  2  1  0
 27 22  1  0
 17  6  2  0
 14  8  1  0
  1 28  1  0
  1 29  1  0
  1 30  1  0
  3 31  1  0
  4 32  1  0
  9 33  1  0
 10 34  1  0
 11 35  1  0
 13 36  1  0
 18 37  1  0
 19 38  1  0
 21 39  1  0
 21 40  1  0
 23 41  1  0
 24 42  1  0
 25 43  1  0
 26 44  1  0
 27 45  1  0
M  END
>  <meeko>  (4) 
{"is_sidechain": [false], "free_energy": -9.522, "intermolecular_energy": -11.941, "internal_energy": -0.863}

$$$$
cand_001_out
     RDKit          3D

 45 48  0  0  0  0  0  0  0  0999 V2000
   20.4350  -25.3940   43.4670 C   0  0  0  0  0  0  0  0  0  0  0  0
   20.4400  -26.2690   42.2430 C   0  0  0  0  0  0  0  0  0  0  0  0
   19.2290  -26.4870   41.5680 C   0  0  0  0  0  0  0  0  0  0  0  0
   19.1820  -27.2660   40.4090 C   0  0  0  0  0  0  0  0  0  0  0  0
   20.3460  -27.8380   39.8850 C   0  0  0  0  0  0  0  0  0  0  0  0
   20.2730  -28.6700   38.6650 C   0  0  0  0  0  0  0  0  0  0  0  0
   19.9570  -29.9970   38.9360 O   0  0  0  0  0  0  0  0  0  0  0  0
   19.8580  -30.8810   37.8910 C   0  0  0  0  0  0  0  0  0  0  0  0
   19.5540  -32.2060   38.2080 C   0  0  0  0  0  0  0  0  0  0  0  0
   19.4360  -33.1550   37.1920 C   0  0  0  0  0  0  0  0  0  0  0  0
   19.6210  -32.7820   35.8600 C   0  0  0  0  0  0  0  0  0  0  0  0
   19.9240  -31.4600   35.5450 C   0  0  0  0  0  0  0  0  0  0  0  0
   20.0920  -31.1630   34.2210 O   0  0  0  0  0  0  0  0  0  0  0  0
   20.0430  -30.5090   36.5630 C   0  0  0  0  0  0  0  0  0  0  0  0
   20.3600  -29.1090   36.2760 C   0  0  0  0  0  0  0  0  0  0  0  0
   20.5290  -28.7020   35.1290 O   0  0  0  0  0  0  0  0  0  0  0  0
   20.4710  -28.1830   37.4270 C   0  0  0  0  0  0  0  0  0  0  0  0
   20.7580  -26.8600   37.1430 O   0  0  0  0  0  0  0  0  0  0  0  0
   21.5540  -27.6240   40.5610 C   0  0  0  0  0  0  0  0  0  0  0  0
   21.6230  -26.8380   41.7300 C   0  0  0  0  0  0  0  0  0  0  0  0
   22.9800  -26.6290   42.3780 C   0  0  0  0  0  0  0  0  0  0  0  0
   23.6230  -27.8810   42.9350 C   0  0  0  0  0  0  0  0  0  0  0  0
   23.9710  -27.9490   44.2930 C   0  0  0  0  0  0  0  0  0  0  0  0
   24.5420  -29.1080   44.8230 C   0  0  0  0  0  0  0  0  0  0  0  0
   24.7650  -30.2140   44.0060 C   0  0  0  0  0  0  0  0  0  0  0  0
   24.4130  -30.1640   42.6580 C   0  0  0  0  0  0  0  0  0  0  0  0
   23.8410  -29.0070   42.1270 C   0  0  0  0  0  0  0  0  0  0  0  0
   20.4386  -26.0244   44.3684 H   0  0  0  0  0  0  0  0  0  0  0  0
   21.3295  -24.7538   43.4637 H   0  0  0  0  0  0  0  0  0  0  0  0
   19.5332  -24.7641   43.4637 H   0  0  0  0  0  0  0  0  0  0  0  0
   18.3033  -26.0380   41.9571 H   0  0  0  0  0  0  0  0  0  0  0  0
   18.2193  -27.4312   39.9032 H   0  0  0  0  0  0  0  0  0  0  0  0
   19.4077  -32.5016   39.2574 H   0  0  0  0  0  0  0  0  0  0  0  0
   19.1967  -34.1993   37.4414 H   0  0  0  0  0  0  0  0  0  0  0  0
   19.5276  -33.5313   35.0601 H   0  0  0  0  0  0  0  0  0  0  0  0
   19.6870  -30.4010   33.8570 H   0  0  0  0  0  0  0  0  0  0  0  0
   21.1010  -26.6250   36.3040 H   0  0  0  0  0  0  0  0  0  0  0  0
   22.4744  -28.0817   40.1693 H   0  0  0  0  0  0  0  0  0  0  0  0
   23.6573  -26.2050   41.6221 H   0  0  0  0  0  0  0  0  0  0  0  0
   22.8111  -25.9623   43.2365 H   0  0  0  0  0  0  0  0  0  0  0  0
   23.7924  -27.0817   44.9456 H   0  0  0  0  0  0  0  0  0  0  0  0
   24.8162  -29.1476   45.8875 H   0  0  0  0  0  0  0  0  0  0  0  0
   25.2180  -31.1252   44.4237 H   0  0  0  0  0  0  0  0  0  0  0  0
   24.5863  -31.0374   42.0122 H   0  0  0  0  0  0  0  0  0  0  0  0
   23.5583  -28.9776   41.0644 H   0  0  0  0  0  0  0  0  0  0  0  0
  1  2  1  0
  2  3  2  0
  3  4  1  0
  4  5  2  0
  5  6  1  0
  6  7  1  0
  7  8  1  0
  8  9  2  0
  9 10  1  0
 10 11  2  0
 11 12  1  0
 12 13  1  0
 12 14  2  0
 14 15  1  0
 15 16  2  0
 15 17  1  0
 17 18  1  0
  5 19  1  0
 19 20  2  0
 20 21  1  0
 21 22  1  0
 22 23  2  0
 23 24  1  0
 24 25  2  0
 25 26  1  0
 26 27  2  0
 20  2  1  0
 27 22  1  0
 17  6  2  0
 14  8  1  0
  1 28  1  0
  1 29  1  0
  1 30  1  0
  3 31  1  0
  4 32  1  0
  9 33  1  0
 10 34  1  0
 11 35  1  0
 13 36  1  0
 18 37  1  0
 19 38  1  0
 21 39  1  0
 21 40  1  0
 23 41  1  0
 24 42  1  0
 25 43  1  0
 26 44  1  0
 27 45  1  0
M  END
>  <meeko>  (5) 
{"is_sidechain": [false], "free_energy": -9.327, "intermolecular_energy": -11.91, "internal_energy": -0.654}

$$$$
cand_001_out
     RDKit          3D

 45 48  0  0  0  0  0  0  0  0999 V2000
   19.2750  -28.6040   35.3610 C   0  0  0  0  0  0  0  0  0  0  0  0
   20.0000  -28.4840   36.6730 C   0  0  0  0  0  0  0  0  0  0  0  0
   20.0770  -27.2240   37.2860 C   0  0  0  0  0  0  0  0  0  0  0  0
   20.7120  -27.0610   38.5200 C   0  0  0  0  0  0  0  0  0  0  0  0
   21.2770  -28.1560   39.1820 C   0  0  0  0  0  0  0  0  0  0  0  0
   21.9570  -27.9620   40.4800 C   0  0  0  0  0  0  0  0  0  0  0  0
   22.7510  -29.0450   40.8410 O   0  0  0  0  0  0  0  0  0  0  0  0
   23.4410  -28.9960   42.0260 C   0  0  0  0  0  0  0  0  0  0  0  0
   24.2130  -30.1100   42.3560 C   0  0  0  0  0  0  0  0  0  0  0  0
   24.9420  -30.1250   43.5460 C   0  0  0  0  0  0  0  0  0  0  0  0
   24.8990  -29.0260   44.4070 C   0  0  0  0  0  0  0  0  0  0  0  0
   24.1270  -27.9150   44.0760 C   0  0  0  0  0  0  0  0  0  0  0  0
   24.1310  -26.8740   44.9630 O   0  0  0  0  0  0  0  0  0  0  0  0
   23.3980  -27.9020   42.8830 C   0  0  0  0  0  0  0  0  0  0  0  0
   22.5750  -26.7540   42.4970 C   0  0  0  0  0  0  0  0  0  0  0  0
   22.4910  -25.7480   43.1970 O   0  0  0  0  0  0  0  0  0  0  0  0
   21.8340  -26.8430   41.2170 C   0  0  0  0  0  0  0  0  0  0  0  0
   21.0700  -25.7480   40.8560 O   0  0  0  0  0  0  0  0  0  0  0  0
   21.2050  -29.4140   38.5690 C   0  0  0  0  0  0  0  0  0  0  0  0
   20.5640  -29.5990   37.3260 C   0  0  0  0  0  0  0  0  0  0  0  0
   20.5010  -31.0030   36.7510 C   0  0  0  0  0  0  0  0  0  0  0  0
   19.7300  -32.0020   37.5850 C   0  0  0  0  0  0  0  0  0  0  0  0
   19.0950  -33.0920   36.9700 C   0  0  0  0  0  0  0  0  0  0  0  0
   18.4010  -34.0340   37.7340 C   0  0  0  0  0  0  0  0  0  0  0  0
   18.3400  -33.9020   39.1190 C   0  0  0  0  0  0  0  0  0  0  0  0
   18.9770  -32.8320   39.7430 C   0  0  0  0  0  0  0  0  0  0  0  0
   19.6720  -31.8900   38.9830 C   0  0  0  0  0  0  0  0  0  0  0  0
   18.2055  -28.7810   35.5479 H   0  0  0  0  0  0  0  0  0  0  0  0
   19.3979  -27.6733   34.7877 H   0  0  0  0  0  0  0  0  0  0  0  0
   19.6912  -29.4455   34.7877 H   0  0  0  0  0  0  0  0  0  0  0  0
   19.6305  -26.3511   36.7873 H   0  0  0  0  0  0  0  0  0  0  0  0
   20.7681  -26.0613   38.9755 H   0  0  0  0  0  0  0  0  0  0  0  0
   24.2472  -30.9761   41.6787 H   0  0  0  0  0  0  0  0  0  0  0  0
   25.5511  -31.0033   43.8061 H   0  0  0  0  0  0  0  0  0  0  0  0
   25.4738  -29.0379   45.3448 H   0  0  0  0  0  0  0  0  0  0  0  0
   24.9190  -26.3910   45.1140 H   0  0  0  0  0  0  0  0  0  0  0  0
   20.6670  -25.7160   40.0110 H   0  0  0  0  0  0  0  0  0  0  0  0
   21.6605  -30.2806   39.0705 H   0  0  0  0  0  0  0  0  0  0  0  0
   20.0246  -30.9452   35.7612 H   0  0  0  0  0  0  0  0  0  0  0  0
   21.5383  -31.3675   36.7162 H   0  0  0  0  0  0  0  0  0  0  0  0
   19.1440  -33.2058   35.8770 H   0  0  0  0  0  0  0  0  0  0  0  0
   17.9021  -34.8811   37.2406 H   0  0  0  0  0  0  0  0  0  0  0  0
   17.7897  -34.6415   39.7192 H   0  0  0  0  0  0  0  0  0  0  0  0
   18.9322  -32.7292   40.8373 H   0  0  0  0  0  0  0  0  0  0  0  0
   20.1789  -31.0522   39.4841 H   0  0  0  0  0  0  0  0  0  0  0  0
  1  2  1  0
  2  3  2  0
  3  4  1  0
  4  5  2  0
  5  6  1  0
  6  7  1  0
  7  8  1  0
  8  9  2  0
  9 10  1  0
 10 11  2  0
 11 12  1  0
 12 13  1  0
 12 14  2  0
 14 15  1  0
 15 16  2  0
 15 17  1  0
 17 18  1  0
  5 19  1  0
 19 20  2  0
 20 21  1  0
 21 22  1  0
 22 23  2  0
 23 24  1  0
 24 25  2  0
 25 26  1  0
 26 27  2  0
 20  2  1  0
 27 22  1  0
 17  6  2  0
 14  8  1  0
  1 28  1  0
  1 29  1  0
  1 30  1  0
  3 31  1  0
  4 32  1  0
  9 33  1  0
 10 34  1  0
 11 35  1  0
 13 36  1  0
 18 37  1  0
 19 38  1  0
 21 39  1  0
 21 40  1  0
 23 41  1  0
 24 42  1  0
 25 43  1  0
 26 44  1  0
 27 45  1  0
M  END
>  <meeko>  (6) 
{"is_sidechain": [false], "free_energy": -9.159, "intermolecular_energy": -12.55, "internal_energy": 0.194}

$$$$
cand_001_out
     RDKit          3D

 45 48  0  0  0  0  0  0  0  0999 V2000
   21.9010  -26.8120   41.7650 C   0  0  0  0  0  0  0  0  0  0  0  0
   21.4320  -27.8580   40.7920 C   0  0  0  0  0  0  0  0  0  0  0  0
   22.3200  -28.8800   40.4240 C   0  0  0  0  0  0  0  0  0  0  0  0
   21.9270  -29.8950   39.5470 C   0  0  0  0  0  0  0  0  0  0  0  0
   20.6310  -29.9230   39.0230 C   0  0  0  0  0  0  0  0  0  0  0  0
   20.2370  -30.9960   38.0860 C   0  0  0  0  0  0  0  0  0  0  0  0
   20.5960  -30.7220   36.7710 O   0  0  0  0  0  0  0  0  0  0  0  0
   20.2890  -31.6380   35.7960 C   0  0  0  0  0  0  0  0  0  0  0  0
   20.6530  -31.3160   34.4880 C   0  0  0  0  0  0  0  0  0  0  0  0
   20.3740  -32.2050   33.4480 C   0  0  0  0  0  0  0  0  0  0  0  0
   19.7300  -33.4140   33.7160 C   0  0  0  0  0  0  0  0  0  0  0  0
   19.3670  -33.7340   35.0220 C   0  0  0  0  0  0  0  0  0  0  0  0
   18.7410  -34.9340   35.2130 O   0  0  0  0  0  0  0  0  0  0  0  0
   19.6480  -32.8430   36.0620 C   0  0  0  0  0  0  0  0  0  0  0  0
   19.2840  -33.1400   37.4490 C   0  0  0  0  0  0  0  0  0  0  0  0
   18.7230  -34.1860   37.7650 O   0  0  0  0  0  0  0  0  0  0  0  0
   19.6190  -32.1250   38.4760 C   0  0  0  0  0  0  0  0  0  0  0  0
   19.2830  -32.4220   39.7850 O   0  0  0  0  0  0  0  0  0  0  0  0
   19.7440  -28.9000   39.3860 C   0  0  0  0  0  0  0  0  0  0  0  0
   20.1210  -27.8700   40.2740 C   0  0  0  0  0  0  0  0  0  0  0  0
   19.0860  -26.8220   40.6410 C   0  0  0  0  0  0  0  0  0  0  0  0
   19.2100  -25.5110   39.8950 C   0  0  0  0  0  0  0  0  0  0  0  0
   19.2340  -25.4980   38.4920 C   0  0  0  0  0  0  0  0  0  0  0  0
   19.3240  -24.2920   37.7930 C   0  0  0  0  0  0  0  0  0  0  0  0
   19.3830  -23.0860   38.4860 C   0  0  0  0  0  0  0  0  0  0  0  0
   19.3480  -23.0830   39.8790 C   0  0  0  0  0  0  0  0  0  0  0  0
   19.2570  -24.2870   40.5800 C   0  0  0  0  0  0  0  0  0  0  0  0
   21.7408  -27.1693   42.7929 H   0  0  0  0  0  0  0  0  0  0  0  0
   22.9722  -26.6182   41.6069 H   0  0  0  0  0  0  0  0  0  0  0  0
   21.3331  -25.8833   41.6069 H   0  0  0  0  0  0  0  0  0  0  0  0
   23.3415  -28.8825   40.8320 H   0  0  0  0  0  0  0  0  0  0  0  0
   22.6447  -30.6799   39.2662 H   0  0  0  0  0  0  0  0  0  0  0  0
   21.1593  -30.3627   34.2763 H   0  0  0  0  0  0  0  0  0  0  0  0
   20.6619  -31.9524   32.4168 H   0  0  0  0  0  0  0  0  0  0  0  0
   19.5093  -34.1136   32.8963 H   0  0  0  0  0  0  0  0  0  0  0  0
   17.8810  -35.0740   34.8700 H   0  0  0  0  0  0  0  0  0  0  0  0
   18.4800  -32.1010   40.1460 H   0  0  0  0  0  0  0  0  0  0  0  0
   18.7267  -28.9001   38.9674 H   0  0  0  0  0  0  0  0  0  0  0  0
   18.0896  -27.2394   40.4339 H   0  0  0  0  0  0  0  0  0  0  0  0
   19.2495  -26.5876   41.7032 H   0  0  0  0  0  0  0  0  0  0  0  0
   19.1814  -26.4465   37.9374 H   0  0  0  0  0  0  0  0  0  0  0  0
   19.3483  -24.2952   36.6933 H   0  0  0  0  0  0  0  0  0  0  0  0
   19.4571  -22.1370   37.9348 H   0  0  0  0  0  0  0  0  0  0  0  0
   19.3921  -22.1304   40.4273 H   0  0  0  0  0  0  0  0  0  0  0  0
   19.2218  -24.2761   41.6794 H   0  0  0  0  0  0  0  0  0  0  0  0
  1  2  1  0
  2  3  2  0
  3  4  1  0
  4  5  2  0
  5  6  1  0
  6  7  1  0
  7  8  1  0
  8  9  2  0
  9 10  1  0
 10 11  2  0
 11 12  1  0
 12 13  1  0
 12 14  2  0
 14 15  1  0
 15 16  2  0
 15 17  1  0
 17 18  1  0
  5 19  1  0
 19 20  2  0
 20 21  1  0
 21 22  1  0
 22 23  2  0
 23 24  1  0
 24 25  2  0
 25 26  1  0
 26 27  2  0
 20  2  1  0
 27 22  1  0
 17  6  2  0
 14  8  1  0
  1 28  1  0
  1 29  1  0
  1 30  1  0
  3 31  1  0
  4 32  1  0
  9 33  1  0
 10 34  1  0
 11 35  1  0
 13 36  1  0
 18 37  1  0
 19 38  1  0
 21 39  1  0
 21 40  1  0
 23 41  1  0
 24 42  1  0
 25 43  1  0
 26 44  1  0
 27 45  1  0
M  END
>  <meeko>  (7) 
{"is_sidechain": [false], "free_energy": -9.06, "intermolecular_energy": -11.257, "internal_energy": -0.977}

$$$$
cand_001_out
     RDKit          3D

 45 48  0  0  0  0  0  0  0  0999 V2000
   20.4180  -30.8080   35.8130 C   0  0  0  0  0  0  0  0  0  0  0  0
   20.8180  -30.2560   37.1540 C   0  0  0  0  0  0  0  0  0  0  0  0
   22.0080  -29.5190   37.2500 C   0  0  0  0  0  0  0  0  0  0  0  0
   22.4110  -28.9570   38.4650 C   0  0  0  0  0  0  0  0  0  0  0  0
   21.6290  -29.1060   39.6150 C   0  0  0  0  0  0  0  0  0  0  0  0
   22.0780  -28.5170   40.8940 C   0  0  0  0  0  0  0  0  0  0  0  0
   21.3410  -27.3960   41.2600 O   0  0  0  0  0  0  0  0  0  0  0  0
   21.6540  -26.7500   42.4290 C   0  0  0  0  0  0  0  0  0  0  0  0
   20.9000  -25.6210   42.7510 C   0  0  0  0  0  0  0  0  0  0  0  0
   21.1650  -24.9180   43.9280 C   0  0  0  0  0  0  0  0  0  0  0  0
   22.1830  -25.3440   44.7830 C   0  0  0  0  0  0  0  0  0  0  0  0
   22.9350  -26.4710   44.4600 C   0  0  0  0  0  0  0  0  0  0  0  0
   23.9160  -26.8330   45.3420 O   0  0  0  0  0  0  0  0  0  0  0  0
   22.6690  -27.1740   43.2810 C   0  0  0  0  0  0  0  0  0  0  0  0
   23.4350  -28.3630   42.9050 C   0  0  0  0  0  0  0  0  0  0  0  0
   24.3410  -28.8040   43.6080 O   0  0  0  0  0  0  0  0  0  0  0  0
   23.0790  -29.0310   41.6310 C   0  0  0  0  0  0  0  0  0  0  0  0
   23.8000  -30.1620   41.2920 O   0  0  0  0  0  0  0  0  0  0  0  0
   20.4430  -29.8470   39.5210 C   0  0  0  0  0  0  0  0  0  0  0  0
   20.0170  -30.4180   38.3030 C   0  0  0  0  0  0  0  0  0  0  0  0
   18.7000  -31.1740   38.2840 C   0  0  0  0  0  0  0  0  0  0  0  0
   18.8230  -32.6760   38.4120 C   0  0  0  0  0  0  0  0  0  0  0  0
   18.5380  -33.3050   39.6340 C   0  0  0  0  0  0  0  0  0  0  0  0
   18.6250  -34.6940   39.7560 C   0  0  0  0  0  0  0  0  0  0  0  0
   18.9900  -35.4700   38.6590 C   0  0  0  0  0  0  0  0  0  0  0  0
   19.2640  -34.8600   37.4370 C   0  0  0  0  0  0  0  0  0  0  0  0
   19.1770  -33.4720   37.3120 C   0  0  0  0  0  0  0  0  0  0  0  0
   19.7780  -31.6912   35.9561 H   0  0  0  0  0  0  0  0  0  0  0  0
   19.8645  -30.0412   35.2512 H   0  0  0  0  0  0  0  0  0  0  0  0
   21.3190  -31.0953   35.2512 H   0  0  0  0  0  0  0  0  0  0  0  0
   22.6334  -29.3813   36.3556 H   0  0  0  0  0  0  0  0  0  0  0  0
   23.3531  -28.3916   38.5171 H   0  0  0  0  0  0  0  0  0  0  0  0
   20.0973  -25.2850   42.0781 H   0  0  0  0  0  0  0  0  0  0  0  0
   20.5710  -24.0276   44.1818 H   0  0  0  0  0  0  0  0  0  0  0  0
   22.3910  -24.7904   45.7105 H   0  0  0  0  0  0  0  0  0  0  0  0
   24.2460  -26.2080   45.9570 H   0  0  0  0  0  0  0  0  0  0  0  0
   24.3870  -30.5470   41.9120 H   0  0  0  0  0  0  0  0  0  0  0  0
   19.8273  -29.9873   40.4217 H   0  0  0  0  0  0  0  0  0  0  0  0
   18.0853  -30.8095   39.1202 H   0  0  0  0  0  0  0  0  0  0  0  0
   18.2516  -30.9853   37.2974 H   0  0  0  0  0  0  0  0  0  0  0  0
   18.2435  -32.6989   40.5034 H   0  0  0  0  0  0  0  0  0  0  0  0
   18.4048  -35.1754   40.7202 H   0  0  0  0  0  0  0  0  0  0  0  0
   19.0619  -36.5632   38.7572 H   0  0  0  0  0  0  0  0  0  0  0  0
   19.5494  -35.4727   36.5691 H   0  0  0  0  0  0  0  0  0  0  0  0
   19.3880  -32.9981   36.3420 H   0  0  0  0  0  0  0  0  0  0  0  0
  1  2  1  0
  2  3  2  0
  3  4  1  0
  4  5  2  0
  5  6  1  0
  6  7  1  0
  7  8  1  0
  8  9  2  0
  9 10  1  0
 10 11  2  0
 11 12  1  0
 12 13  1  0
 12 14  2  0
 14 15  1  0
 15 16  2  0
 15 17  1  0
 17 18  1  0
  5 19  1  0
 19 20  2  0
 20 21  1  0
 21 22  1  0
 22 23  2  0
 23 24  1  0
 24 25  2  0
 25 26  1  0
 26 27  2  0
 20  2  1  0
 27 22  1  0
 17  6  2  0
 14  8  1  0
  1 28  1  0
  1 29  1  0
  1 30  1  0
  3 31  1  0
  4 32  1  0
  9 33  1  0
 10 34  1  0
 11 35  1  0
 13 36  1  0
 18 37  1  0
 19 38  1  0
 21 39  1  0
 21 40  1  0
 23 41  1  0
 24 42  1  0
 25 43  1  0
 26 44  1  0
 27 45  1  0
M  END
>  <meeko>  (8) 
{"is_sidechain": [false], "free_energy": -8.989, "intermolecular_energy": -11.432, "internal_energy": -0.715}

$$$$
cand_001_out
     RDKit          3D

 45 48  0  0  0  0  0  0  0  0999 V2000
   19.9210  -21.0080   44.5980 C   0  0  0  0  0  0  0  0  0  0  0  0
   20.4320  -22.3590   44.1790 C   0  0  0  0  0  0  0  0  0  0  0  0
   21.2620  -22.4430   43.0500 C   0  0  0  0  0  0  0  0  0  0  0  0
   21.7900  -23.6690   42.6350 C   0  0  0  0  0  0  0  0  0  0  0  0
   21.5130  -24.8420   43.3430 C   0  0  0  0  0  0  0  0  0  0  0  0
   22.0680  -26.1320   42.8800 C   0  0  0  0  0  0  0  0  0  0  0  0
   22.9930  -26.6710   43.7670 O   0  0  0  0  0  0  0  0  0  0  0  0
   23.5870  -27.8690   43.4590 C   0  0  0  0  0  0  0  0  0  0  0  0
   24.5200  -28.3660   44.3700 C   0  0  0  0  0  0  0  0  0  0  0  0
   25.1590  -29.5810   44.1180 C   0  0  0  0  0  0  0  0  0  0  0  0
   24.8670  -30.2990   42.9570 C   0  0  0  0  0  0  0  0  0  0  0  0
   23.9350  -29.8010   42.0500 C   0  0  0  0  0  0  0  0  0  0  0  0
   23.6960  -30.5550   40.9340 O   0  0  0  0  0  0  0  0  0  0  0  0
   23.2960  -28.5840   42.3020 C   0  0  0  0  0  0  0  0  0  0  0  0
   22.3100  -28.0250   41.3750 C   0  0  0  0  0  0  0  0  0  0  0  0
   21.9940  -28.6010   40.3360 O   0  0  0  0  0  0  0  0  0  0  0  0
   21.6960  -26.7250   41.7310 C   0  0  0  0  0  0  0  0  0  0  0  0
   20.7560  -26.2130   40.8540 O   0  0  0  0  0  0  0  0  0  0  0  0
   20.6800  -24.7600   44.4670 C   0  0  0  0  0  0  0  0  0  0  0  0
   20.1420  -23.5320   44.9050 C   0  0  0  0  0  0  0  0  0  0  0  0
   19.2790  -23.5290   46.1540 C   0  0  0  0  0  0  0  0  0  0  0  0
   20.0330  -23.7100   47.4540 C   0  0  0  0  0  0  0  0  0  0  0  0
   19.6420  -24.7070   48.3610 C   0  0  0  0  0  0  0  0  0  0  0  0
   20.3460  -24.8980   49.5530 C   0  0  0  0  0  0  0  0  0  0  0  0
   21.4510  -24.1030   49.8470 C   0  0  0  0  0  0  0  0  0  0  0  0
   21.8560  -23.1180   48.9490 C   0  0  0  0  0  0  0  0  0  0  0  0
   21.1550  -22.9250   47.7570 C   0  0  0  0  0  0  0  0  0  0  0  0
   19.8986  -20.9489   45.6962 H   0  0  0  0  0  0  0  0  0  0  0  0
   20.5854  -20.2258   44.2021 H   0  0  0  0  0  0  0  0  0  0  0  0
   18.9052  -20.8612   44.2021 H   0  0  0  0  0  0  0  0  0  0  0  0
   21.5004  -21.5307   42.4836 H   0  0  0  0  0  0  0  0  0  0  0  0
   22.4304  -23.7111   41.7416 H   0  0  0  0  0  0  0  0  0  0  0  0
   24.7514  -27.8012   45.2851 H   0  0  0  0  0  0  0  0  0  0  0  0
   25.8943  -29.9736   44.8358 H   0  0  0  0  0  0  0  0  0  0  0  0
   25.3720  -31.2560   42.7590 H   0  0  0  0  0  0  0  0  0  0  0  0
   24.0120  -31.4350   40.8870 H   0  0  0  0  0  0  0  0  0  0  0  0
   20.4760  -26.7210   40.1190 H   0  0  0  0  0  0  0  0  0  0  0  0
   20.4392  -25.6783   45.0227 H   0  0  0  0  0  0  0  0  0  0  0  0
   18.7476  -22.5670   46.1991 H   0  0  0  0  0  0  0  0  0  0  0  0
   18.6075  -24.3957   46.0653 H   0  0  0  0  0  0  0  0  0  0  0  0
   18.7744  -25.3432   48.1318 H   0  0  0  0  0  0  0  0  0  0  0  0
   20.0268  -25.6776   50.2603 H   0  0  0  0  0  0  0  0  0  0  0  0
   22.0030  -24.2526   50.7866 H   0  0  0  0  0  0  0  0  0  0  0  0
   22.7299  -22.4910   49.1795 H   0  0  0  0  0  0  0  0  0  0  0  0
   21.4857  -22.1505   47.0494 H   0  0  0  0  0  0  0  0  0  0  0  0
  1  2  1  0
  2  3  2  0
  3  4  1  0
  4  5  2  0
  5  6  1  0
  6  7  1  0
  7  8  1  0
  8  9  2  0
  9 10  1  0
 10 11  2  0
 11 12  1  0
 12 13  1  0
 12 14  2  0
 14 15  1  0
 15 16  2  0
 15 17  1  0
 17 18  1  0
  5 19  1  0
 19 20  2  0
 20 21  1  0
 21 22  1  0
 22 23  2  0
 23 24  1  0
 24 25  2  0
 25 26  1  0
 26 27  2  0
 20  2  1  0
 27 22  1  0
 17  6  2  0
 14  8  1  0
  1 28  1  0
  1 29  1  0
  1 30  1  0
  3 31  1  0
  4 32  1  0
  9 33  1  0
 10 34  1  0
 11 35  1  0
 13 36  1  0
 18 37  1  0
 19 38  1  0
 21 39  1  0
 21 40  1  0
 23 41  1  0
 24 42  1  0
 25 43  1  0
 26 44  1  0
 27 45  1  0
M  END
>  <meeko>  (9) 
{"is_sidechain": [false], "free_energy": -8.826, "intermolecular_energy": -10.924, "internal_energy": -1.022}

$$$$
