cand_002_out
     RDKit          3D

 45 48  0  0  0  0  0  0  0  0999 V2000
   18.6280  -26.6100   40.3420 C   0  0  0  0  0  0  0  0  0  0  0  0
   19.7630  -27.5050   39.9260 C   0  0  0  0  0  0  0  0  0  0  0  0
   19.4680  -28.6610   39.1780 C   0  0  0  0  0  0  0  0  0  0  0  0
   20.4700  -29.5530   38.7670 C   0  0  0  0  0  0  0  0  0  0  0  0
   20.1090  -30.7660   38.0030 C   0  0  0  0  0  0  0  0  0  0  0  0
   19.6930  -31.8130   38.8160 O   0  0  0  0  0  0  0  0  0  0  0  0
   19.3280  -33.0010   38.2360 C   0  0  0  0  0  0  0  0  0  0  0  0
   18.9300  -34.0290   39.0910 C   0  0  0  0  0  0  0  0  0  0  0  0
   18.5440  -35.2630   38.5650 C   0  0  0  0  0  0  0  0  0  0  0  0
   18.5550  -35.4690   37.1840 C   0  0  0  0  0  0  0  0  0  0  0  0
   18.9510  -34.4410   36.3320 C   0  0  0  0  0  0  0  0  0  0  0  0
   18.9380  -34.7110   34.9910 O   0  0  0  0  0  0  0  0  0  0  0  0
   19.3390  -33.2070   36.8600 C   0  0  0  0  0  0  0  0  0  0  0  0
   19.7620  -32.1010   36.0010 C   0  0  0  0  0  0  0  0  0  0  0  0
   19.7920  -32.2020   34.7760 O   0  0  0  0  0  0  0  0  0  0  0  0
   20.1610  -30.8350   36.6590 C   0  0  0  0  0  0  0  0  0  0  0  0
   20.5460  -29.7920   35.8370 O   0  0  0  0  0  0  0  0  0  0  0  0
   21.7900  -29.2820   39.1370 C   0  0  0  0  0  0  0  0  0  0  0  0
   22.1000  -28.1460   39.8880 C   0  0  0  0  0  0  0  0  0  0  0  0
   21.0990  -27.2480   40.2950 C   0  0  0  0  0  0  0  0  0  0  0  0
   21.5030  -26.0380   41.1200 C   0  0  0  0  0  0  0  0  0  0  0  0
   22.2750  -26.3470   42.3840 C   0  0  0  0  0  0  0  0  0  0  0  0
   23.4080  -25.5900   42.7190 C   0  0  0  0  0  0  0  0  0  0  0  0
   24.1440  -25.8810   43.8680 C   0  0  0  0  0  0  0  0  0  0  0  0
   23.7630  -26.9360   44.6940 C   0  0  0  0  0  0  0  0  0  0  0  0
   22.6480  -27.7050   44.3670 C   0  0  0  0  0  0  0  0  0  0  0  0
   21.9100  -27.4160   43.2170 C   0  0  0  0  0  0  0  0  0  0  0  0
   18.5765  -26.5694   41.4400 H   0  0  0  0  0  0  0  0  0  0  0  0
   18.7948  -25.5978   39.9451 H   0  0  0  0  0  0  0  0  0  0  0  0
   17.6826  -27.0083   39.9451 H   0  0  0  0  0  0  0  0  0  0  0  0
   18.4224  -28.8706   38.9083 H   0  0  0  0  0  0  0  0  0  0  0  0
   18.9204  -33.8672   40.1790 H   0  0  0  0  0  0  0  0  0  0  0  0
   18.2309  -36.0739   39.2390 H   0  0  0  0  0  0  0  0  0  0  0  0
   18.2514  -36.4417   36.7697 H   0  0  0  0  0  0  0  0  0  0  0  0
   19.6840  -34.5030   34.4630 H   0  0  0  0  0  0  0  0  0  0  0  0
   21.4500  -29.5510   35.7780 H   0  0  0  0  0  0  0  0  0  0  0  0
   22.5928  -29.9702   38.8338 H   0  0  0  0  0  0  0  0  0  0  0  0
   23.1463  -27.9509   40.1658 H   0  0  0  0  0  0  0  0  0  0  0  0
   22.1290  -25.3899   40.4891 H   0  0  0  0  0  0  0  0  0  0  0  0
   20.5651  -25.5635   41.4442 H   0  0  0  0  0  0  0  0  0  0  0  0
   23.7190  -24.7588   42.0692 H   0  0  0  0  0  0  0  0  0  0  0  0
   25.0269  -25.2761   44.1221 H   0  0  0  0  0  0  0  0  0  0  0  0
   24.3410  -27.1615   45.6023 H   0  0  0  0  0  0  0  0  0  0  0  0
   22.3485  -28.5413   45.0158 H   0  0  0  0  0  0  0  0  0  0  0  0
   21.0349  -28.0317   42.9619 H   0  0  0  0  0  0  0  0  0  0  0  0
  1  2  1  0
  2  3  2  0
  3  4  1  0
  4  5  1  0
  5  6  1  0
  6  7  1  0
  7  8  2  0
  8  9  1  0
  9 10  2  0
 10 11  1  0
 11 12  1  0
 11 13  2  0
 13 14  1  0
 14 15  2  0
 14 16  1  0
 16 17  1  0
  4 18  2  0
 18 19  1  0
 19 20  2  0
 20 21  1  0
 21 22  1  0
 22 23  2  0
 23 24  1  0
 24 25  2  0
 25 26  1  0
 26 27  2  0
 20  2  1  0
 27 22  1  0
 16  5  2  0
 13  7  1  0
  1 28  1  0
  1 29  1  0
  1 30  1  0
  3 31  1  0
  8 32  1  0
  9 33  1  0
 10 34  1  0
 12 35  1  0
 17 36  1  0
 18 37  1  0
 19 38  1  0
 21 39  1  0
 21 40  1  0
 23 41  1  0
 24 42  1  0
 25 43  1  0
 26 44  1  0
 27 45  1  0
M  END
>  <meeko>  (1) 
{"is_sidechain": [false], "free_energy": -10.29, "intermolecular_energy": -12.696, "internal_energy": -0.876}

$$$$
cand_002_out
     RDKit          3D

 45 48  0  0  0  0  0  0  0  0999 V2000
   18.6200  -26.6150   40.0720 C   0  0  0  0  0  0  0  0  0  0  0  0
   19.7530  -27.5510   39.7550 C   0  0  0  0  0  0  0  0  0  0  0  0
   19.4860  -28.6900   38.9710 C   0  0  0  0  0  0  0  0  0  0  0  0
   20.4880  -29.6170   38.6460 C   0  0  0  0  0  0  0  0  0  0  0  0
   20.1540  -30.8100   37.8380 C   0  0  0  0  0  0  0  0  0  0  0  0
   20.4620  -30.6530   36.4920 O   0  0  0  0  0  0  0  0  0  0  0  0
   20.2040  -31.6860   35.6270 C   0  0  0  0  0  0  0  0  0  0  0  0
   20.5160  -31.4800   34.2830 C   0  0  0  0  0  0  0  0  0  0  0  0
   20.2790  -32.4910   33.3500 C   0  0  0  0  0  0  0  0  0  0  0  0
   19.7300  -33.7070   33.7610 C   0  0  0  0  0  0  0  0  0  0  0  0
   19.4200  -33.9100   35.1030 C   0  0  0  0  0  0  0  0  0  0  0  0
   18.8860  -35.1260   35.4360 O   0  0  0  0  0  0  0  0  0  0  0  0
   19.6560  -32.8980   36.0360 C   0  0  0  0  0  0  0  0  0  0  0  0
   19.3440  -33.0700   37.4550 C   0  0  0  0  0  0  0  0  0  0  0  0
   18.8660  -34.1130   37.8950 O   0  0  0  0  0  0  0  0  0  0  0  0
   19.6260  -31.9320   38.3610 C   0  0  0  0  0  0  0  0  0  0  0  0
   19.3400  -32.1110   39.7030 O   0  0  0  0  0  0  0  0  0  0  0  0
   21.7760  -29.4000   39.1410 C   0  0  0  0  0  0  0  0  0  0  0  0
   22.0580  -28.2830   39.9300 C   0  0  0  0  0  0  0  0  0  0  0  0
   21.0570  -27.3490   40.2510 C   0  0  0  0  0  0  0  0  0  0  0  0
   21.4280  -26.1620   41.1230 C   0  0  0  0  0  0  0  0  0  0  0  0
   22.2940  -26.4860   42.3200 C   0  0  0  0  0  0  0  0  0  0  0  0
   21.9500  -27.5480   43.1700 C   0  0  0  0  0  0  0  0  0  0  0  0
   22.7260  -27.8420   44.2930 C   0  0  0  0  0  0  0  0  0  0  0  0
   23.8510  -27.0740   44.5840 C   0  0  0  0  0  0  0  0  0  0  0  0
   24.1980  -26.0070   43.7570 C   0  0  0  0  0  0  0  0  0  0  0  0
   23.4220  -25.7120   42.6340 C   0  0  0  0  0  0  0  0  0  0  0  0
   18.5123  -26.5260   41.1631 H   0  0  0  0  0  0  0  0  0  0  0  0
   18.8314  -25.6247   39.6424 H   0  0  0  0  0  0  0  0  0  0  0  0
   17.6874  -27.0095   39.6424 H   0  0  0  0  0  0  0  0  0  0  0  0
   18.4630  -28.8577   38.6030 H   0  0  0  0  0  0  0  0  0  0  0  0
   20.9483  -30.5219   33.9588 H   0  0  0  0  0  0  0  0  0  0  0  0
   20.5250  -32.3294   32.2901 H   0  0  0  0  0  0  0  0  0  0  0  0
   19.5427  -34.5034   33.0257 H   0  0  0  0  0  0  0  0  0  0  0  0
   18.3710  -35.2130   36.2140 H   0  0  0  0  0  0  0  0  0  0  0  0
   18.9110  -32.8930   39.9900 H   0  0  0  0  0  0  0  0  0  0  0  0
   22.5768  -30.1168   38.9067 H   0  0  0  0  0  0  0  0  0  0  0  0
   23.0803  -28.1311   40.3067 H   0  0  0  0  0  0  0  0  0  0  0  0
   21.9696  -25.4369   40.4978 H   0  0  0  0  0  0  0  0  0  0  0  0
   20.4817  -25.7739   41.5278 H   0  0  0  0  0  0  0  0  0  0  0  0
   21.0598  -28.1553   42.9494 H   0  0  0  0  0  0  0  0  0  0  0  0
   22.4487  -28.6808   44.9484 H   0  0  0  0  0  0  0  0  0  0  0  0
   24.4651  -27.3094   45.4658 H   0  0  0  0  0  0  0  0  0  0  0  0
   25.0835  -25.3970   43.9890 H   0  0  0  0  0  0  0  0  0  0  0  0
   23.6976  -24.8646   41.9891 H   0  0  0  0  0  0  0  0  0  0  0  0
  1  2  1  0
  2  3  2  0
  3  4  1  0
  4  5  1  0
  5  6  1  0
  6  7  1  0
  7  8  2  0
  8  9  1  0
  9 10  2  0
 10 11  1  0
 11 12  1  0
 11 13  2  0
 13 14  1  0
 14 15  2  0
 14 16  1  0
 16 17  1  0
  4 18  2  0
 18 19  1  0
 19 20  2  0
 20 21  1  0
 21 22  1  0
 22 23  2  0
 23 24  1  0
 24 25  2  0
 25 26  1  0
 26 27  2  0
 20  2  1  0
 27 22  1  0
 16  5  2  0
 13  7  1  0
  1 28  1  0
  1 29  1  0
  1 30  1  0
  3 31  1  0
  8 32  1  0
  9 33  1  0
 10 34  1  0
 12 35  1  0
 17 36  1  0
 18 37  1  0
 19 38  1  0
 21 39  1  0
 21 40  1  0
 23 41  1  0
 24 42  1  0
 25 43  1  0
 26 44  1  0
 27 45  1  0
M  END
>  <meeko>  (2) 
{"is_sidechain": [false], "free_energy": -9.987, "intermolecular_energy": -12.413, "internal_energy": -0.786}

$$$$
cand_002_out
     RDKit          3D

 45 48  0  0  0  0  0  0  0  0999 V2000
   23.8090  -28.3560   42.9780 C   0  0  0  0  0  0  0  0  0  0  0  0
   22.7950  -27.9230   41.9560 C   0  0  0  0  0  0  0  0  0  0  0  0
   22.3040  -28.8800   41.0480 C   0  0  0  0  0  0  0  0  0  0  0  0
   21.3680  -28.5480   40.0560 C   0  0  0  0  0  0  0  0  0  0  0  0
   20.8980  -29.5830   39.1110 C   0  0  0  0  0  0  0  0  0  0  0  0
   20.1590  -30.5840   39.7300 O   0  0  0  0  0  0  0  0  0  0  0  0
   19.6600  -31.6100   38.9680 C   0  0  0  0  0  0  0  0  0  0  0  0
   18.9360  -32.5990   39.6330 C   0  0  0  0  0  0  0  0  0  0  0  0
   18.4000  -33.6710   38.9160 C   0  0  0  0  0  0  0  0  0  0  0  0
   18.5870  -33.7520   37.5350 C   0  0  0  0  0  0  0  0  0  0  0  0
   19.3100  -32.7630   36.8730 C   0  0  0  0  0  0  0  0  0  0  0  0
   19.4550  -32.9040   35.5200 O   0  0  0  0  0  0  0  0  0  0  0  0
   19.8470  -31.6910   37.5920 C   0  0  0  0  0  0  0  0  0  0  0  0
   20.6130  -30.6310   36.9360 C   0  0  0  0  0  0  0  0  0  0  0  0
   20.8150  -30.6280   35.7230 O   0  0  0  0  0  0  0  0  0  0  0  0
   21.1460  -29.5430   37.7880 C   0  0  0  0  0  0  0  0  0  0  0  0
   21.8570  -28.5390   37.1560 O   0  0  0  0  0  0  0  0  0  0  0  0
   20.9390  -27.2210   39.9680 C   0  0  0  0  0  0  0  0  0  0  0  0
   21.4240  -26.2560   40.8520 C   0  0  0  0  0  0  0  0  0  0  0  0
   22.3560  -26.5870   41.8510 C   0  0  0  0  0  0  0  0  0  0  0  0
   22.8520  -25.4860   42.7730 C   0  0  0  0  0  0  0  0  0  0  0  0
   21.8880  -25.0750   43.8650 C   0  0  0  0  0  0  0  0  0  0  0  0
   20.6050  -24.6140   43.5320 C   0  0  0  0  0  0  0  0  0  0  0  0
   19.7150  -24.2070   44.5270 C   0  0  0  0  0  0  0  0  0  0  0  0
   20.0970  -24.2490   45.8660 C   0  0  0  0  0  0  0  0  0  0  0  0
   21.3730  -24.6920   46.2100 C   0  0  0  0  0  0  0  0  0  0  0  0
   22.2640  -25.0990   45.2160 C   0  0  0  0  0  0  0  0  0  0  0  0
   23.4079  -28.1847   43.9879 H   0  0  0  0  0  0  0  0  0  0  0  0
   24.0278  -29.4260   42.8470 H   0  0  0  0  0  0  0  0  0  0  0  0
   24.7332  -27.7741   42.8470 H   0  0  0  0  0  0  0  0  0  0  0  0
   22.6639  -29.9171   41.1178 H   0  0  0  0  0  0  0  0  0  0  0  0
   18.7872  -32.5349   40.7210 H   0  0  0  0  0  0  0  0  0  0  0  0
   17.8299  -34.4523   39.4400 H   0  0  0  0  0  0  0  0  0  0  0  0
   18.1638  -34.5959   36.9705 H   0  0  0  0  0  0  0  0  0  0  0  0
   19.7390  -33.7220   35.1620 H   0  0  0  0  0  0  0  0  0  0  0  0
   22.6700  -28.2430   37.5150 H   0  0  0  0  0  0  0  0  0  0  0  0
   20.2117  -26.9341   39.1942 H   0  0  0  0  0  0  0  0  0  0  0  0
   21.0707  -25.2179   40.7655 H   0  0  0  0  0  0  0  0  0  0  0  0
   23.7790  -25.8350   43.2514 H   0  0  0  0  0  0  0  0  0  0  0  0
   22.9912  -24.5977   42.1393 H   0  0  0  0  0  0  0  0  0  0  0  0
   20.2979  -24.5731   42.4765 H   0  0  0  0  0  0  0  0  0  0  0  0
   18.7103  -23.8525   44.2535 H   0  0  0  0  0  0  0  0  0  0  0  0
   19.3931  -23.9332   46.6501 H   0  0  0  0  0  0  0  0  0  0  0  0
   21.6781  -24.7208   47.2664 H   0  0  0  0  0  0  0  0  0  0  0  0
   23.2712  -25.4421   45.4949 H   0  0  0  0  0  0  0  0  0  0  0  0
  1  2  1  0
  2  3  2  0
  3  4  1  0
  4  5  1  0
  5  6  1  0
  6  7  1  0
  7  8  2  0
  8  9  1  0
  9 10  2  0
 10 11  1  0
 11 12  1  0
 11 13  2  0
 13 14  1  0
 14 15  2  0
 14 16  1  0
 16 17  1  0
  4 18  2  0
 18 19  1  0
 19 20  2  0
 20 21  1  0
 21 22  1  0
 22 23  2  0
 23 24  1  0
 24 25  2  0
 25 26  1  0
 26 27  2  0
 20  2  1  0
 27 22  1  0
 16  5  2  0
 13  7  1  0
  1 28  1  0
  1 29  1  0
  1 30  1  0
  3 31  1  0
  8 32  1  0
  9 33  1  0
 10 34  1  0
 12 35  1  0
 17 36  1  0
 18 37  1  0
 19 38  1  0
 21 39  1  0
 21 40  1  0
 23 41  1  0
 24 42  1  0
 25 43  1  0
 26 44  1  0
 27 45  1  0
M  END
>  <meeko>  (3) 
{"is_sidechain": [false], "free_energy": -9.92, "intermolecular_energy": -12.527, "internal_energy": -0.589}

$$$$
cand_002_out
     RDKit          3D

 45 48  0  0  0  0  0  0  0  0999 V2000
   18.2720  -26.5370   39.7500 C   0  0  0  0  0  0  0  0  0  0  0  0
   19.3350  -27.5890   39.5970 C   0  0  0  0  0  0  0  0  0  0  0  0
   19.3770  -28.3340   38.4030 C   0  0  0  0  0  0  0  0  0  0  0  0
   20.3290  -29.3430   38.1940 C   0  0  0  0  0  0  0  0  0  0  0  0
   20.3200  -30.1140   36.9320 C   0  0  0  0  0  0  0  0  0  0  0  0
   19.9020  -31.4280   37.1050 O   0  0  0  0  0  0  0  0  0  0  0  0
   19.8460  -32.2570   36.0130 C   0  0  0  0  0  0  0  0  0  0  0  0
   19.4350  -33.5710   36.2350 C   0  0  0  0  0  0  0  0  0  0  0  0
   19.3550  -34.4660   35.1670 C   0  0  0  0  0  0  0  0  0  0  0  0
   19.6850  -34.0470   33.8770 C   0  0  0  0  0  0  0  0  0  0  0  0
   20.0950  -32.7340   33.6580 C   0  0  0  0  0  0  0  0  0  0  0  0
   20.4030  -32.3900   32.3690 O   0  0  0  0  0  0  0  0  0  0  0  0
   20.1770  -31.8390   34.7280 C   0  0  0  0  0  0  0  0  0  0  0  0
   20.6020  -30.4520   34.5410 C   0  0  0  0  0  0  0  0  0  0  0  0
   20.9030  -30.0060   33.4350 O   0  0  0  0  0  0  0  0  0  0  0  0
   20.6620  -29.5860   35.7410 C   0  0  0  0  0  0  0  0  0  0  0  0
   21.0530  -28.2730   35.5510 O   0  0  0  0  0  0  0  0  0  0  0  0
   21.2400  -29.6170   39.2170 C   0  0  0  0  0  0  0  0  0  0  0  0
   21.2060  -28.8970   40.4120 C   0  0  0  0  0  0  0  0  0  0  0  0
   20.2570  -27.8810   40.6230 C   0  0  0  0  0  0  0  0  0  0  0  0
   20.2680  -27.1430   41.9500 C   0  0  0  0  0  0  0  0  0  0  0  0
   21.6340  -26.7110   42.4380 C   0  0  0  0  0  0  0  0  0  0  0  0
   22.3070  -27.4690   43.4080 C   0  0  0  0  0  0  0  0  0  0  0  0
   23.5560  -27.0680   43.8850 C   0  0  0  0  0  0  0  0  0  0  0  0
   24.1440  -25.9000   43.4050 C   0  0  0  0  0  0  0  0  0  0  0  0
   23.4810  -25.1290   42.4510 C   0  0  0  0  0  0  0  0  0  0  0  0
   22.2320  -25.5300   41.9730 C   0  0  0  0  0  0  0  0  0  0  0  0
   18.0878  -26.3547   40.8190 H   0  0  0  0  0  0  0  0  0  0  0  0
   18.6070  -25.6049   39.2715 H   0  0  0  0  0  0  0  0  0  0  0  0
   17.3435  -26.8817   39.2715 H   0  0  0  0  0  0  0  0  0  0  0  0
   18.6432  -28.1190   37.6123 H   0  0  0  0  0  0  0  0  0  0  0  0
   19.1740  -33.9018   37.2511 H   0  0  0  0  0  0  0  0  0  0  0  0
   19.0315  -35.5027   35.3420 H   0  0  0  0  0  0  0  0  0  0  0  0
   19.6214  -34.7522   33.0352 H   0  0  0  0  0  0  0  0  0  0  0  0
   19.7440  -32.0280   31.8110 H   0  0  0  0  0  0  0  0  0  0  0  0
   21.9290  -28.0800   35.2780 H   0  0  0  0  0  0  0  0  0  0  0  0
   21.9917  -30.4082   39.0792 H   0  0  0  0  0  0  0  0  0  0  0  0
   21.9346  -29.1284   41.2030 H   0  0  0  0  0  0  0  0  0  0  0  0
   19.6447  -26.2429   41.8435 H   0  0  0  0  0  0  0  0  0  0  0  0
   19.8889  -27.8553   42.6976 H   0  0  0  0  0  0  0  0  0  0  0  0
   21.8456  -28.3888   43.7966 H   0  0  0  0  0  0  0  0  0  0  0  0
   24.0764  -27.6748   44.6406 H   0  0  0  0  0  0  0  0  0  0  0  0
   25.1301  -25.5863   43.7781 H   0  0  0  0  0  0  0  0  0  0  0  0
   23.9424  -24.2041   42.0747 H   0  0  0  0  0  0  0  0  0  0  0  0
   21.7118  -24.9141   41.2246 H   0  0  0  0  0  0  0  0  0  0  0  0
  1  2  1  0
  2  3  2  0
  3  4  1  0
  4  5  1  0
  5  6  1  0
  6  7  1  0
  7  8  2  0
  8  9  1  0
  9 10  2  0
 10 11  1  0
 11 12  1  0
 11 13  2  0
 13 14  1  0
 14 15  2  0
 14 16  1  0
 16 17  1  0
  4 18  2  0
 18 19  1  0
 19 20  2  0
 20 21  1  0
 21 22  1  0
 22 23  2  0
 23 24  1  0
 24 25  2  0
 25 26  1  0
 26 27  2  0
 20  2  1  0
 27 22  1  0
 16  5  2  0
 13  7  1  0
  1 28  1  0
  1 29  1  0
  1 30  1  0
  3 31  1  0
  8 32  1  0
  9 33  1  0
 10 34  1  0
 12 35  1  0
 17 36  1  0
 18 37  1  0
 19 38  1  0
 21 39  1  0
 21 40  1  0
 23 41  1  0
 24 42  1  0
 25 43  1  0
 26 44  1  0
 27 45  1  0
M  END
>  <meeko>  (4) 
{"is_sidechain": [false], "free_energy": -9.707, "intermolecular_energy": -12.058, "internal_energy": -0.794}

$$$$
cand_002_out
     RDKit          3D

 45 48  0  0  0  0  0  0  0  0999 V2000
   18.6440  -33.3230   39.5800 C   0  0  0  0  0  0  0  0  0  0  0  0
   19.3360  -32.2430   38.7940 C   0  0  0  0  0  0  0  0  0  0  0  0
   19.7820  -31.0950   39.4770 C   0  0  0  0  0  0  0  0  0  0  0  0
   20.4210  -30.0390   38.8100 C   0  0  0  0  0  0  0  0  0  0  0  0
   20.8520  -28.8440   39.5660 C   0  0  0  0  0  0  0  0  0  0  0  0
   21.8070  -29.1330   40.5340 O   0  0  0  0  0  0  0  0  0  0  0  0
   22.2950  -28.1130   41.3100 C   0  0  0  0  0  0  0  0  0  0  0  0
   23.2410  -28.4510   42.2790 C   0  0  0  0  0  0  0  0  0  0  0  0
   23.7800  -27.4600   43.1020 C   0  0  0  0  0  0  0  0  0  0  0  0
   23.3730  -26.1320   42.9560 C   0  0  0  0  0  0  0  0  0  0  0  0
   22.4290  -25.7980   41.9890 C   0  0  0  0  0  0  0  0  0  0  0  0
   22.0760  -24.4780   41.9010 O   0  0  0  0  0  0  0  0  0  0  0  0
   21.8900  -26.7900   41.1670 C   0  0  0  0  0  0  0  0  0  0  0  0
   20.8950  -26.4810   40.1380 C   0  0  0  0  0  0  0  0  0  0  0  0
   20.4920  -25.3360   39.9450 O   0  0  0  0  0  0  0  0  0  0  0  0
   20.3800  -27.6060   39.3240 C   0  0  0  0  0  0  0  0  0  0  0  0
   19.4510  -27.3010   38.3460 O   0  0  0  0  0  0  0  0  0  0  0  0
   20.5930  -30.1360   37.4270 C   0  0  0  0  0  0  0  0  0  0  0  0
   20.1460  -31.2620   36.7310 C   0  0  0  0  0  0  0  0  0  0  0  0
   19.5120  -32.3240   37.3980 C   0  0  0  0  0  0  0  0  0  0  0  0
   19.0400  -33.5140   36.5800 C   0  0  0  0  0  0  0  0  0  0  0  0
   19.6850  -33.6570   35.2180 C   0  0  0  0  0  0  0  0  0  0  0  0
   19.8850  -32.5260   34.4120 C   0  0  0  0  0  0  0  0  0  0  0  0
   20.4550  -32.6470   33.1440 C   0  0  0  0  0  0  0  0  0  0  0  0
   20.8250  -33.9010   32.6610 C   0  0  0  0  0  0  0  0  0  0  0  0
   20.6190  -35.0350   33.4450 C   0  0  0  0  0  0  0  0  0  0  0  0
   20.0490  -34.9150   34.7140 C   0  0  0  0  0  0  0  0  0  0  0  0
   18.7677  -33.1300   40.6559 H   0  0  0  0  0  0  0  0  0  0  0  0
   17.5729  -33.3298   39.3294 H   0  0  0  0  0  0  0  0  0  0  0  0
   19.0854  -34.2989   39.3294 H   0  0  0  0  0  0  0  0  0  0  0  0
   19.6250  -31.0243   40.5634 H   0  0  0  0  0  0  0  0  0  0  0  0
   23.5616  -29.4969   42.3942 H   0  0  0  0  0  0  0  0  0  0  0  0
   24.5257  -27.7255   43.8659 H   0  0  0  0  0  0  0  0  0  0  0  0
   23.7977  -25.3512   43.6041 H   0  0  0  0  0  0  0  0  0  0  0  0
   21.9010  -23.9870   42.6790 H   0  0  0  0  0  0  0  0  0  0  0  0
   18.8900  -27.9720   38.0080 H   0  0  0  0  0  0  0  0  0  0  0  0
   21.0852  -29.3179   36.8807 H   0  0  0  0  0  0  0  0  0  0  0  0
   20.2929  -31.3181   35.6423 H   0  0  0  0  0  0  0  0  0  0  0  0
   19.2524  -34.4276   37.1546 H   0  0  0  0  0  0  0  0  0  0  0  0
   17.9682  -33.3507   36.3943 H   0  0  0  0  0  0  0  0  0  0  0  0
   19.5894  -31.5337   34.7835 H   0  0  0  0  0  0  0  0  0  0  0  0
   20.6125  -31.7515   32.5249 H   0  0  0  0  0  0  0  0  0  0  0  0
   21.2786  -33.9956   31.6633 H   0  0  0  0  0  0  0  0  0  0  0  0
   20.9059  -36.0260   33.0634 H   0  0  0  0  0  0  0  0  0  0  0  0
   19.8837  -35.8151   35.3244 H   0  0  0  0  0  0  0  0  0  0  0  0
  1  2  1  0
  2  3  2  0
  3  4  1  0
  4  5  1  0
  5  6  1  0
  6  7  1  0
  7  8  2  0
  8  9  1  0
  9 10  2  0
 10 11  1  0
 11 12  1  0
 11 13  2  0
 13 14  1  0
 14 15  2  0
 14 16  1  0
 16 17  1  0
  4 18  2  0
 18 19  1  0
 19 20  2  0
 20 21  1  0
 21 22  1  0
 22 23  2  0
 23 24  1  0
 24 25  2  0
 25 26  1  0
 26 27  2  0
 20  2  1  0
 27 22  1  0
 16  5  2  0
 13  7  1  0
  1 28  1  0
  1 29  1  0
  1 30  1  0
  3 31  1  0
  8 32  1  0
  9 33  1  0
 10 34  1  0
 12 35  1  0
 17 36  1  0
 18 37  1  0
 19 38  1  0
 21 39  1  0
 21 40  1  0
 23 41  1  0
 24 42  1  0
 25 43  1  0
 26 44  1  0
 27 45  1  0
M  END
>  <meeko>  (5) 
{"is_sidechain": [false], "free_energy": -9.503, "intermolecular_energy": -12.877, "internal_energy": 0.275}

$$$$
cand_002_out
     RDKit          3D

 45 48  0  0  0  0  0  0  0  0999 V2000
   20.4620  -28.3540   35.2220 C   0  0  0  0  0  0  0  0  0  0  0  0
   20.6500  -29.0730   36.5290 C   0  0  0  0  0  0  0  0  0  0  0  0
   21.0590  -28.3290   37.6530 C   0  0  0  0  0  0  0  0  0  0  0  0
   21.2700  -28.9310   38.9030 C   0  0  0  0  0  0  0  0  0  0  0  0
   21.7210  -28.1120   40.0480 C   0  0  0  0  0  0  0  0  0  0  0  0
   22.5390  -28.8130   40.9250 O   0  0  0  0  0  0  0  0  0  0  0  0
   23.0290  -28.1720   42.0340 C   0  0  0  0  0  0  0  0  0  0  0  0
   23.8350  -28.9180   42.8940 C   0  0  0  0  0  0  0  0  0  0  0  0
   24.3680  -28.3250   44.0410 C   0  0  0  0  0  0  0  0  0  0  0  0
   24.0940  -26.9860   44.3260 C   0  0  0  0  0  0  0  0  0  0  0  0
   23.2900  -26.2430   43.4660 C   0  0  0  0  0  0  0  0  0  0  0  0
   23.0630  -24.9370   43.8070 O   0  0  0  0  0  0  0  0  0  0  0  0
   22.7560  -26.8380   42.3200 C   0  0  0  0  0  0  0  0  0  0  0  0
   21.9060  -26.0930   41.3900 C   0  0  0  0  0  0  0  0  0  0  0  0
   21.6260  -24.9100   41.5700 O   0  0  0  0  0  0  0  0  0  0  0  0
   21.3850  -26.8170   40.2080 C   0  0  0  0  0  0  0  0  0  0  0  0
   20.5940  -26.1000   39.3290 O   0  0  0  0  0  0  0  0  0  0  0  0
   21.0870  -30.3110   39.0120 C   0  0  0  0  0  0  0  0  0  0  0  0
   20.6930  -31.0680   37.9060 C   0  0  0  0  0  0  0  0  0  0  0  0
   20.4740  -30.4650   36.6540 C   0  0  0  0  0  0  0  0  0  0  0  0
   20.0580  -31.3470   35.4900 C   0  0  0  0  0  0  0  0  0  0  0  0
   19.6060  -32.7420   35.8650 C   0  0  0  0  0  0  0  0  0  0  0  0
   18.9320  -32.9610   37.0750 C   0  0  0  0  0  0  0  0  0  0  0  0
   18.5320  -34.2460   37.4450 C   0  0  0  0  0  0  0  0  0  0  0  0
   18.8080  -35.3300   36.6150 C   0  0  0  0  0  0  0  0  0  0  0  0
   19.4890  -35.1290   35.4160 C   0  0  0  0  0  0  0  0  0  0  0  0
   19.8900  -33.8440   35.0440 C   0  0  0  0  0  0  0  0  0  0  0  0
   20.1881  -27.3064   35.4159 H   0  0  0  0  0  0  0  0  0  0  0  0
   21.3991  -28.3876   34.6469 H   0  0  0  0  0  0  0  0  0  0  0  0
   19.6613  -28.8420   34.6469 H   0  0  0  0  0  0  0  0  0  0  0  0
   21.2175  -27.2456   37.5480 H   0  0  0  0  0  0  0  0  0  0  0  0
   24.0508  -29.9729   42.6690 H   0  0  0  0  0  0  0  0  0  0  0  0
   25.0035  -28.9129   44.7196 H   0  0  0  0  0  0  0  0  0  0  0  0
   24.5130  -26.5185   45.2293 H   0  0  0  0  0  0  0  0  0  0  0  0
   22.6880  -24.3490   43.1820 H   0  0  0  0  0  0  0  0  0  0  0  0
   19.7800  -26.4580   39.0330 H   0  0  0  0  0  0  0  0  0  0  0  0
   21.2549  -30.8074   39.9792 H   0  0  0  0  0  0  0  0  0  0  0  0
   20.5517  -32.1533   38.0159 H   0  0  0  0  0  0  0  0  0  0  0  0
   19.2279  -30.8500   34.9667 H   0  0  0  0  0  0  0  0  0  0  0  0
   20.9568  -31.4751   34.8689 H   0  0  0  0  0  0  0  0  0  0  0  0
   18.7163  -32.1113   37.7394 H   0  0  0  0  0  0  0  0  0  0  0  0
   17.9979  -34.4029   38.3937 H   0  0  0  0  0  0  0  0  0  0  0  0
   18.4892  -36.3420   36.9052 H   0  0  0  0  0  0  0  0  0  0  0  0
   19.7112  -35.9844   34.7611 H   0  0  0  0  0  0  0  0  0  0  0  0
   20.4332  -33.6944   34.0992 H   0  0  0  0  0  0  0  0  0  0  0  0
  1  2  1  0
  2  3  2  0
  3  4  1  0
  4  5  1  0
  5  6  1  0
  6  7  1  0
  7  8  2  0
  8  9  1  0
  9 10  2  0
 10 11  1  0
 11 12  1  0
 11 13  2  0
 13 14  1  0
 14 15  2  0
 14 16  1  0
 16 17  1  0
  4 18  2  0
 18 19  1  0
 19 20  2  0
 20 21  1  0
 21 22  1  0
 22 23  2  0
 23 24  1  0
 24 25  2  0
 25 26  1  0
 26 27  2  0
 20  2  1  0
 27 22  1  0
 16  5  2  0
 13  7  1  0
  1 28  1  0
  1 29  1  0
  1 30  1  0
  3 31  1  0
  8 32  1  0
  9 33  1  0
 10 34  1  0
 12 35  1  0
 17 36  1  0
 18 37  1  0
 19 38  1  0
 21 39  1  0
 21 40  1  0
 23 41  1  0
 24 42  1  0
 25 43  1  0
 26 44  1  0
 27 45  1  0
M  END
>  <meeko>  (6) 
{"is_sidechain": [false], "free_energy": -8.96, "intermolecular_energy": -12.419, "internal_energy": 0.488}

$$$$
cand_002_out
     RDKit          3D

 45 48  0  0  0  0  0  0  0  0999 V2000
   24.3380  -27.4990   43.9300 C   0  0  0  0  0  0  0  0  0  0  0  0
   23.0290  -27.1630   43.2700 C   0  0  0  0  0  0  0  0  0  0  0  0
   22.6680  -27.8570   42.0990 C   0  0  0  0  0  0  0  0  0  0  0  0
   21.4710  -27.5890   41.4190 C   0  0  0  0  0  0  0  0  0  0  0  0
   21.1460  -28.3290   40.1800 C   0  0  0  0  0  0  0  0  0  0  0  0
   20.7130  -29.6260   40.4250 O   0  0  0  0  0  0  0  0  0  0  0  0
   20.3770  -30.4260   39.3620 C   0  0  0  0  0  0  0  0  0  0  0  0
   19.9620  -31.7260   39.6530 C   0  0  0  0  0  0  0  0  0  0  0  0
   19.6040  -32.5910   38.6170 C   0  0  0  0  0  0  0  0  0  0  0  0
   19.6610  -32.1570   37.2910 C   0  0  0  0  0  0  0  0  0  0  0  0
   20.0760  -30.8590   37.0040 C   0  0  0  0  0  0  0  0  0  0  0  0
   20.1090  -30.4990   35.6840 O   0  0  0  0  0  0  0  0  0  0  0  0
   20.4350  -29.9940   38.0410 C   0  0  0  0  0  0  0  0  0  0  0  0
   20.8770  -28.6230   37.7820 C   0  0  0  0  0  0  0  0  0  0  0  0
   20.9470  -28.1660   36.6430 O   0  0  0  0  0  0  0  0  0  0  0  0
   21.2420  -27.7890   38.9500 C   0  0  0  0  0  0  0  0  0  0  0  0
   21.6440  -26.4910   38.6960 O   0  0  0  0  0  0  0  0  0  0  0  0
   20.6350  -26.5870   41.9180 C   0  0  0  0  0  0  0  0  0  0  0  0
   20.9820  -25.8800   43.0710 C   0  0  0  0  0  0  0  0  0  0  0  0
   22.1770  -26.1520   43.7590 C   0  0  0  0  0  0  0  0  0  0  0  0
   22.5000  -25.3380   45.0010 C   0  0  0  0  0  0  0  0  0  0  0  0
   21.3020  -24.7540   45.7190 C   0  0  0  0  0  0  0  0  0  0  0  0
   20.4180  -23.9050   45.0370 C   0  0  0  0  0  0  0  0  0  0  0  0
   19.3240  -23.3390   45.6940 C   0  0  0  0  0  0  0  0  0  0  0  0
   19.1040  -23.6090   47.0430 C   0  0  0  0  0  0  0  0  0  0  0  0
   19.9810  -24.4400   47.7370 C   0  0  0  0  0  0  0  0  0  0  0  0
   21.0760  -25.0060   47.0810 C   0  0  0  0  0  0  0  0  0  0  0  0
   24.2163  -27.4678   45.0228 H   0  0  0  0  0  0  0  0  0  0  0  0
   24.6542  -28.5074   43.6250 H   0  0  0  0  0  0  0  0  0  0  0  0
   25.1008  -26.7675   43.6250 H   0  0  0  0  0  0  0  0  0  0  0  0
   23.3439  -28.6311   41.7066 H   0  0  0  0  0  0  0  0  0  0  0  0
   19.9169  -32.0690   40.6972 H   0  0  0  0  0  0  0  0  0  0  0  0
   19.2766  -33.6159   38.8458 H   0  0  0  0  0  0  0  0  0  0  0  0
   19.3788  -32.8387   36.4751 H   0  0  0  0  0  0  0  0  0  0  0  0
   20.7250  -29.8590   35.3880 H   0  0  0  0  0  0  0  0  0  0  0  0
   22.5570  -26.2880   38.6280 H   0  0  0  0  0  0  0  0  0  0  0  0
   19.6946  -26.3528   41.3977 H   0  0  0  0  0  0  0  0  0  0  0  0
   20.3082  -25.0963   43.4475 H   0  0  0  0  0  0  0  0  0  0  0  0
   23.0343  -25.9913   45.7065 H   0  0  0  0  0  0  0  0  0  0  0  0
   23.0973  -24.4807   44.6571 H   0  0  0  0  0  0  0  0  0  0  0  0
   20.5886  -23.6828   43.9733 H   0  0  0  0  0  0  0  0  0  0  0  0
   18.6351  -22.6793   45.1461 H   0  0  0  0  0  0  0  0  0  0  0  0
   18.2392  -23.1668   47.5594 H   0  0  0  0  0  0  0  0  0  0  0  0
   19.8105  -24.6505   48.8031 H   0  0  0  0  0  0  0  0  0  0  0  0
   21.7680  -25.6556   47.6370 H   0  0  0  0  0  0  0  0  0  0  0  0
  1  2  1  0
  2  3  2  0
  3  4  1  0
  4  5  1  0
  5  6  1  0
  6  7  1  0
  7  8  2  0
  8  9  1  0
  9 10  2  0
 10 11  1  0
 11 12  1  0
 11 13  2  0
 13 14  1  0
 14 15  2  0
 14 16  1  0
 16 17  1  0
  4 18  2  0
 18 19  1  0
 19 20  2  0
 20 21  1  0
 21 22  1  0
 22 23  2  0
 23 24  1  0
 24 25  2  0
 25 26  1  0
 26 27  2  0
 20  2  1  0
 27 22  1  0
 16  5  2  0
 13  7  1  0
  1 28  1  0
  1 29  1  0
  1 30  1  0
  3 31  1  0
  8 32  1  0
  9 33  1  0
 10 34  1  0
 12 35  1  0
 17 36  1  0
 18 37  1  0
 19 38  1  0
 21 39  1  0
 21 40  1  0
 23 41  1  0
 24 42  1  0
 25 43  1  0
 26 44  1  0
 27 45  1  0
M  END
>  <meeko>  (7) 
{"is_sidechain": [false], "free_energy": -8.939, "intermolecular_energy": -11.774, "internal_energy": -0.132}

$$$$
cand_002_out
     RDKit          3D

 45 48  0  0  0  0  0  0  0  0999 V2000
   18.5700  -28.6370   38.5460 C   0  0  0  0  0  0  0  0  0  0  0  0
   19.8730  -28.7550   39.2890 C   0  0  0  0  0  0  0  0  0  0  0  0
   20.1030  -27.8970   40.3820 C   0  0  0  0  0  0  0  0  0  0  0  0
   21.2990  -27.9360   41.1140 C   0  0  0  0  0  0  0  0  0  0  0  0
   21.5040  -27.0000   42.2400 C   0  0  0  0  0  0  0  0  0  0  0  0
   20.3940  -26.2000   42.4860 O   0  0  0  0  0  0  0  0  0  0  0  0
   20.4480  -25.2840   43.5060 C   0  0  0  0  0  0  0  0  0  0  0  0
   19.3170  -24.4930   43.7090 C   0  0  0  0  0  0  0  0  0  0  0  0
   19.3050  -23.5430   44.7310 C   0  0  0  0  0  0  0  0  0  0  0  0
   20.4240  -23.3840   45.5510 C   0  0  0  0  0  0  0  0  0  0  0  0
   21.5520  -24.1750   45.3470 C   0  0  0  0  0  0  0  0  0  0  0  0
   22.6120  -23.9670   46.1880 O   0  0  0  0  0  0  0  0  0  0  0  0
   21.5630  -25.1250   44.3230 C   0  0  0  0  0  0  0  0  0  0  0  0
   22.7270  -25.9760   44.0750 C   0  0  0  0  0  0  0  0  0  0  0  0
   23.7470  -25.9000   44.7580 O   0  0  0  0  0  0  0  0  0  0  0  0
   22.6410  -26.9470   42.9600 C   0  0  0  0  0  0  0  0  0  0  0  0
   23.7420  -27.7560   42.7430 O   0  0  0  0  0  0  0  0  0  0  0  0
   22.2870  -28.8420   40.7210 C   0  0  0  0  0  0  0  0  0  0  0  0
   22.0820  -29.6920   39.6330 C   0  0  0  0  0  0  0  0  0  0  0  0
   20.8810  -29.6600   38.9010 C   0  0  0  0  0  0  0  0  0  0  0  0
   20.7270  -30.6040   37.7220 C   0  0  0  0  0  0  0  0  0  0  0  0
   19.9100  -31.8490   37.9930 C   0  0  0  0  0  0  0  0  0  0  0  0
   19.3580  -32.5740   36.9260 C   0  0  0  0  0  0  0  0  0  0  0  0
   18.5810  -33.7090   37.1630 C   0  0  0  0  0  0  0  0  0  0  0  0
   18.3400  -34.1300   38.4690 C   0  0  0  0  0  0  0  0  0  0  0  0
   18.8700  -33.4120   39.5390 C   0  0  0  0  0  0  0  0  0  0  0  0
   19.6470  -32.2760   39.3030 C   0  0  0  0  0  0  0  0  0  0  0  0
   17.7424  -28.5621   39.2668 H   0  0  0  0  0  0  0  0  0  0  0  0
   18.5885  -27.7369   37.9140 H   0  0  0  0  0  0  0  0  0  0  0  0
   18.4265  -29.5258   37.9140 H   0  0  0  0  0  0  0  0  0  0  0  0
   19.3232  -27.1764   40.6696 H   0  0  0  0  0  0  0  0  0  0  0  0
   18.4350  -24.6181   43.0637 H   0  0  0  0  0  0  0  0  0  0  0  0
   18.4134  -22.9189   44.8908 H   0  0  0  0  0  0  0  0  0  0  0  0
   20.4146  -22.6352   46.3568 H   0  0  0  0  0  0  0  0  0  0  0  0
   22.9050  -23.0950   46.3650 H   0  0  0  0  0  0  0  0  0  0  0  0
   23.9900  -28.3910   43.3860 H   0  0  0  0  0  0  0  0  0  0  0  0
   23.2364  -28.8860   41.2747 H   0  0  0  0  0  0  0  0  0  0  0  0
   22.8731  -30.3991   39.3429 H   0  0  0  0  0  0  0  0  0  0  0  0
   20.2420  -30.0505   36.9045 H   0  0  0  0  0  0  0  0  0  0  0  0
   21.7410  -30.9528   37.4770 H   0  0  0  0  0  0  0  0  0  0  0  0
   19.5394  -32.2445   35.8923 H   0  0  0  0  0  0  0  0  0  0  0  0
   18.1584  -34.2718   36.3176 H   0  0  0  0  0  0  0  0  0  0  0  0
   17.7323  -35.0278   38.6551 H   0  0  0  0  0  0  0  0  0  0  0  0
   18.6761  -33.7404   40.5708 H   0  0  0  0  0  0  0  0  0  0  0  0
   20.0569  -31.7104   40.1528 H   0  0  0  0  0  0  0  0  0  0  0  0
  1  2  1  0
  2  3  2  0
  3  4  1  0
  4  5  1  0
  5  6  1  0
  6  7  1  0
  7  8  2  0
  8  9  1  0
  9 10  2  0
 10 11  1  0
 11 12  1  0
 11 13  2  0
 13 14  1  0
 14 15  2  0
 14 16  1  0
 16 17  1  0
  4 18  2  0
 18 19  1  0
 19 20  2  0
 20 21  1  0
 21 22  1  0
 22 23  2  0
 23 24  1  0
 24 25  2  0
 25 26  1  0
 26 27  2  0
 20  2  1  0
 27 22  1  0
 16  5  2  0
 13  7  1  0
  1 28  1  0
  1 29  1  0
  1 30  1  0
  3 31  1  0
  8 32  1  0
  9 33  1  0
 10 34  1  0
 12 35  1  0
 17 36  1  0
 18 37  1  0
 19 38  1  0
 21 39  1  0
 21 40  1  0
 23 41  1  0
 24 42  1  0
 25 43  1  0
 26 44  1  0
 27 45  1  0
M  END
>  <meeko>  (8) 
{"is_sidechain": [false], "free_energy": -8.883, "intermolecular_energy": -11.586, "internal_energy": -0.25}

$$$$
cand_002_out
     RDKit          3D

 45 48  0  0  0  0  0  0  0  0999 V2000
   20.7990  -28.0610   35.8790 C   0  0  0  0  0  0  0  0  0  0  0  0
   20.8700  -28.9840   37.0640 C   0  0  0  0  0  0  0  0  0  0  0  0
   21.3480  -28.4740   38.2860 C   0  0  0  0  0  0  0  0  0  0  0  0
   21.4580  -29.2780   39.4320 C   0  0  0  0  0  0  0  0  0  0  0  0
   21.9870  -28.7030   40.6870 C   0  0  0  0  0  0  0  0  0  0  0  0
   21.2480  -27.6140   41.1350 O   0  0  0  0  0  0  0  0  0  0  0  0
   21.6290  -26.9830   42.2920 C   0  0  0  0  0  0  0  0  0  0  0  0
   20.8680  -25.8860   42.6970 C   0  0  0  0  0  0  0  0  0  0  0  0
   21.2010  -25.2000   43.8660 C   0  0  0  0  0  0  0  0  0  0  0  0
   22.2950  -25.6110   44.6310 C   0  0  0  0  0  0  0  0  0  0  0  0
   23.0530  -26.7060   44.2240 C   0  0  0  0  0  0  0  0  0  0  0  0
   24.1110  -27.0540   45.0200 O   0  0  0  0  0  0  0  0  0  0  0  0
   22.7200  -27.3910   43.0530 C   0  0  0  0  0  0  0  0  0  0  0  0
   23.4900  -28.5470   42.5910 C   0  0  0  0  0  0  0  0  0  0  0  0
   24.4620  -28.9720   43.2130 O   0  0  0  0  0  0  0  0  0  0  0  0
   23.0590  -29.1990   41.3330 C   0  0  0  0  0  0  0  0  0  0  0  0
   23.7850  -30.2980   40.9130 O   0  0  0  0  0  0  0  0  0  0  0  0
   21.0980  -30.6240   39.3330 C   0  0  0  0  0  0  0  0  0  0  0  0
   20.6330  -31.1510   38.1260 C   0  0  0  0  0  0  0  0  0  0  0  0
   20.5160  -30.3460   36.9790 C   0  0  0  0  0  0  0  0  0  0  0  0
   20.0140  -30.9840   35.6960 C   0  0  0  0  0  0  0  0  0  0  0  0
   19.6950  -32.4610   35.7900 C   0  0  0  0  0  0  0  0  0  0  0  0
   20.0740  -33.3290   34.7550 C   0  0  0  0  0  0  0  0  0  0  0  0
   19.7640  -34.6890   34.8180 C   0  0  0  0  0  0  0  0  0  0  0  0
   19.0650  -35.1970   35.9110 C   0  0  0  0  0  0  0  0  0  0  0  0
   18.6710  -34.3430   36.9400 C   0  0  0  0  0  0  0  0  0  0  0  0
   18.9800  -32.9830   36.8780 C   0  0  0  0  0  0  0  0  0  0  0  0
   20.7190  -27.0211   36.2285 H   0  0  0  0  0  0  0  0  0  0  0  0
   21.7085  -28.1745   35.2708 H   0  0  0  0  0  0  0  0  0  0  0  0
   19.9175  -28.3123   35.2708 H   0  0  0  0  0  0  0  0  0  0  0  0
   21.6436  -27.4161   38.3448 H   0  0  0  0  0  0  0  0  0  0  0  0
   20.0060  -25.5619   42.0953 H   0  0  0  0  0  0  0  0  0  0  0  0
   20.6013  -24.3348   44.1852 H   0  0  0  0  0  0  0  0  0  0  0  0
   22.5572  -25.0710   45.5528 H   0  0  0  0  0  0  0  0  0  0  0  0
   24.0110  -27.0710   45.9520 H   0  0  0  0  0  0  0  0  0  0  0  0
   23.8320  -30.5070   40.0000 H   0  0  0  0  0  0  0  0  0  0  0  0
   21.1816  -31.2759   40.2151 H   0  0  0  0  0  0  0  0  0  0  0  0
   20.3536  -32.2135   38.0718 H   0  0  0  0  0  0  0  0  0  0  0  0
   19.0980  -30.4572   35.3902 H   0  0  0  0  0  0  0  0  0  0  0  0
   20.8360  -30.8958   34.9704 H   0  0  0  0  0  0  0  0  0  0  0  0
   20.6205  -32.9345   33.8857 H   0  0  0  0  0  0  0  0  0  0  0  0
   20.0722  -35.3606   34.0032 H   0  0  0  0  0  0  0  0  0  0  0  0
   18.8246  -36.2692   35.9618 H   0  0  0  0  0  0  0  0  0  0  0  0
   18.1158  -34.7413   37.8020 H   0  0  0  0  0  0  0  0  0  0  0  0
   18.6596  -32.3142   37.6904 H   0  0  0  0  0  0  0  0  0  0  0  0
  1  2  1  0
  2  3  2  0
  3  4  1  0
  4  5  1  0
  5  6  1  0
  6  7  1  0
  7  8  2  0
  8  9  1  0
  9 10  2  0
 10 11  1  0
 11 12  1  0
 11 13  2  0
 13 14  1  0
 14 15  2  0
 14 16  1  0
 16 17  1  0
  4 18  2  0
 18 19  1  0
 19 20  2  0
 20 21  1  0
 21 22  1  0
 22 23  2  0
 23 24  1  0
 24 25  2  0
 25 26  1  0
 26 27  2  0
 20  2  1  0
 27 22  1  0
 16  5  2  0
 13  7  1  0
  1 28  1  0
  1 29  1  0
  1 30  1  0
  3 31  1  0
  8 32  1  0
  9 33  1  0
 10 34  1  0
 12 35  1  0
 17 36  1  0
 18 37  1  0
 19 38  1  0
 21 39  1  0
 21 40  1  0
 23 41  1  0
 24 42  1  0
 25 43  1  0
 26 44  1  0
 27 45  1  0
M  END
>  <meeko>  (9) 
{"is_sidechain": [false], "free_energy": -8.835, "intermolecular_energy": -11.899, "internal_energy": 0.121}

$$$$
