cand_055_out
     RDKit          3D

 41 43  0  0  0  0  0  0  0  0999 V2000
   22.5120  -25.6450   45.0860 C   0  0  0  0  0  0  0  0  0  0  0  0
   23.1770  -27.0010   44.9090 C   0  0  0  0  0  0  0  0  0  0  0  0
   24.0460  -27.0360   43.6500 C   0  0  0  0  0  0  0  0  0  0  0  0
   23.4060  -27.8490   42.5470 C   0  0  0  0  0  0  0  0  0  0  0  0
   22.3560  -27.2690   41.8150 C   0  0  0  0  0  0  0  0  0  0  0  0
   21.7180  -27.9730   40.7910 C   0  0  0  0  0  0  0  0  0  0  0  0
   22.1150  -29.2730   40.4650 C   0  0  0  0  0  0  0  0  0  0  0  0
   21.4420  -30.0490   39.4010 C   0  0  0  0  0  0  0  0  0  0  0  0
   20.6500  -31.0770   39.9020 O   0  0  0  0  0  0  0  0  0  0  0  0
   19.9670  -31.8760   39.0230 C   0  0  0  0  0  0  0  0  0  0  0  0
   19.1730  -32.8860   39.5690 C   0  0  0  0  0  0  0  0  0  0  0  0
   18.4520  -33.7370   38.7290 C   0  0  0  0  0  0  0  0  0  0  0  0
   18.5260  -33.5810   37.3430 C   0  0  0  0  0  0  0  0  0  0  0  0
   19.3190  -32.5730   36.8010 C   0  0  0  0  0  0  0  0  0  0  0  0
   19.3470  -32.4760   35.4370 O   0  0  0  0  0  0  0  0  0  0  0  0
   20.0390  -31.7210   37.6420 C   0  0  0  0  0  0  0  0  0  0  0  0
   20.8850  -30.6490   37.1130 C   0  0  0  0  0  0  0  0  0  0  0  0
   21.0070  -30.4530   35.9060 O   0  0  0  0  0  0  0  0  0  0  0  0
   21.6010  -29.7960   38.0890 C   0  0  0  0  0  0  0  0  0  0  0  0
   22.4070  -28.7950   37.5770 O   0  0  0  0  0  0  0  0  0  0  0  0
   23.1540  -29.8580   41.2060 C   0  0  0  0  0  0  0  0  0  0  0  0
   23.8020  -29.1660   42.2460 C   0  0  0  0  0  0  0  0  0  0  0  0
   24.9190  -29.8490   42.9860 C   0  0  0  0  0  0  0  0  0  0  0  0
   22.4048  -25.4264   46.1587 H   0  0  0  0  0  0  0  0  0  0  0  0
   23.1315  -24.8684   44.6137 H   0  0  0  0  0  0  0  0  0  0  0  0
   21.5187  -25.6593   44.6137 H   0  0  0  0  0  0  0  0  0  0  0  0
   23.8085  -27.2072   45.7857 H   0  0  0  0  0  0  0  0  0  0  0  0
   22.3896  -27.7624   44.8077 H   0  0  0  0  0  0  0  0  0  0  0  0
   24.1958  -26.0066   43.2923 H   0  0  0  0  0  0  0  0  0  0  0  0
   25.0048  -27.5083   43.9099 H   0  0  0  0  0  0  0  0  0  0  0  0
   22.0316  -26.2450   42.0520 H   0  0  0  0  0  0  0  0  0  0  0  0
   20.8949  -27.4996   40.2356 H   0  0  0  0  0  0  0  0  0  0  0  0
   19.1154  -33.0114   40.6603 H   0  0  0  0  0  0  0  0  0  0  0  0
   17.8247  -34.5315   39.1595 H   0  0  0  0  0  0  0  0  0  0  0  0
   17.9593  -34.2527   36.6814 H   0  0  0  0  0  0  0  0  0  0  0  0
   19.1770  -33.2320   34.9100 H   0  0  0  0  0  0  0  0  0  0  0  0
   23.3160  -28.9600   37.4220 H   0  0  0  0  0  0  0  0  0  0  0  0
   23.4699  -30.8843   40.9674 H   0  0  0  0  0  0  0  0  0  0  0  0
   24.7560  -29.7493   44.0693 H   0  0  0  0  0  0  0  0  0  0  0  0
   24.9405  -30.9149   42.7150 H   0  0  0  0  0  0  0  0  0  0  0  0
   25.8775  -29.3824   42.7150 H   0  0  0  0  0  0  0  0  0  0  0  0
  1  2  1  0
  2  3  1  0
  3  4  1  0
  4  5  2  0
  5  6  1  0
  6  7  2  0
  7  8  1  0
  8  9  1  0
  9 10  1  0
 10 11  2  0
 11 12  1  0
 12 13  2  0
 13 14  1  0
 14 15  1  0
 14 16  2  0
 16 17  1  0
 17 18  2  0
 17 19  1  0
 19 20  1  0
  7 21  1  0
 21 22  2  0
 22 23  1  0
 22  4  1  0
 19  8  2  0
 16 10  1  0
  1 24  1  0
  1 25  1  0
  1 26  1  0
  2 27  1  0
  2 28  1  0
  3 29  1  0
  3 30  1  0
  5 31  1  0
  6 32  1  0
 11 33  1  0
 12 34  1  0
 13 35  1  0
 15 36  1  0
 20 37  1  0
 21 38  1  0
 23 39  1  0
 23 40  1  0
 23 41  1  0
M  END
>  <meeko>  (1) 
{"is_sidechain": [false], "free_energy": -9.341, "intermolecular_energy": -11.525, "internal_energy": -0.549}

$$$$
cand_055_out
     RDKit          3D

 41 43  0  0  0  0  0  0  0  0999 V2000
   24.2000  -26.1250   43.7700 C   0  0  0  0  0  0  0  0  0  0  0  0
   23.4290  -27.2420   43.0850 C   0  0  0  0  0  0  0  0  0  0  0  0
   22.3410  -26.6860   42.1650 C   0  0  0  0  0  0  0  0  0  0  0  0
   21.7930  -27.7470   41.2360 C   0  0  0  0  0  0  0  0  0  0  0  0
   22.6610  -28.7590   40.7940 C   0  0  0  0  0  0  0  0  0  0  0  0
   22.2170  -29.7610   39.9280 C   0  0  0  0  0  0  0  0  0  0  0  0
   20.8920  -29.7830   39.4840 C   0  0  0  0  0  0  0  0  0  0  0  0
   20.4010  -30.8180   38.5490 C   0  0  0  0  0  0  0  0  0  0  0  0
   19.9640  -31.9680   39.1970 O   0  0  0  0  0  0  0  0  0  0  0  0
   19.4820  -33.0100   38.4470 C   0  0  0  0  0  0  0  0  0  0  0  0
   19.0410  -34.1380   39.1390 C   0  0  0  0  0  0  0  0  0  0  0  0
   18.5400  -35.2360   38.4360 C   0  0  0  0  0  0  0  0  0  0  0  0
   18.4820  -35.2060   37.0410 C   0  0  0  0  0  0  0  0  0  0  0  0
   18.9230  -34.0780   36.3530 C   0  0  0  0  0  0  0  0  0  0  0  0
   18.8390  -34.1160   34.9880 O   0  0  0  0  0  0  0  0  0  0  0  0
   19.4230  -32.9800   37.0570 C   0  0  0  0  0  0  0  0  0  0  0  0
   19.8970  -31.7760   36.3720 C   0  0  0  0  0  0  0  0  0  0  0  0
   19.8840  -31.6770   35.1470 O   0  0  0  0  0  0  0  0  0  0  0  0
   20.4020  -30.6650   37.2120 C   0  0  0  0  0  0  0  0  0  0  0  0
   20.8590  -29.5380   36.5530 O   0  0  0  0  0  0  0  0  0  0  0  0
   20.0280  -28.7640   39.9130 C   0  0  0  0  0  0  0  0  0  0  0  0
   20.4610  -27.7420   40.7790 C   0  0  0  0  0  0  0  0  0  0  0  0
   19.4760  -26.6910   41.2110 C   0  0  0  0  0  0  0  0  0  0  0  0
   24.1205  -26.2402   44.8611 H   0  0  0  0  0  0  0  0  0  0  0  0
   25.2578  -26.1735   43.4723 H   0  0  0  0  0  0  0  0  0  0  0  0
   23.7795  -25.1531   43.4723 H   0  0  0  0  0  0  0  0  0  0  0  0
   24.1283  -27.8458   42.4881 H   0  0  0  0  0  0  0  0  0  0  0  0
   22.9468  -27.8558   43.8601 H   0  0  0  0  0  0  0  0  0  0  0  0
   21.5190  -26.2944   42.7822 H   0  0  0  0  0  0  0  0  0  0  0  0
   22.7876  -25.8910   41.5497 H   0  0  0  0  0  0  0  0  0  0  0  0
   23.7068  -28.7625   41.1352 H   0  0  0  0  0  0  0  0  0  0  0  0
   22.9170  -30.5403   39.5922 H   0  0  0  0  0  0  0  0  0  0  0  0
   19.0878  -34.1628   40.2377 H   0  0  0  0  0  0  0  0  0  0  0  0
   18.1908  -36.1251   38.9816 H   0  0  0  0  0  0  0  0  0  0  0  0
   18.0890  -36.0711   36.4868 H   0  0  0  0  0  0  0  0  0  0  0  0
   18.7560  -34.9380   34.5460 H   0  0  0  0  0  0  0  0  0  0  0  0
   20.6620  -29.4140   35.6450 H   0  0  0  0  0  0  0  0  0  0  0  0
   18.9850  -28.7637   39.5635 H   0  0  0  0  0  0  0  0  0  0  0  0
   19.4396  -26.6521   42.3097 H   0  0  0  0  0  0  0  0  0  0  0  0
   19.7893  -25.7119   40.8196 H   0  0  0  0  0  0  0  0  0  0  0  0
   18.4786  -26.9402   40.8196 H   0  0  0  0  0  0  0  0  0  0  0  0
  1  2  1  0
  2  3  1  0
  3  4  1  0
  4  5  2  0
  5  6  1  0
  6  7  2  0
  7  8  1  0
  8  9  1  0
  9 10  1  0
 10 11  2  0
 11 12  1  0
 12 13  2  0
 13 14  1  0
 14 15  1  0
 14 16  2  0
 16 17  1  0
 17 18  2  0
 17 19  1  0
 19 20  1  0
  7 21  1  0
 21 22  2  0
 22 23  1  0
 22  4  1  0
 19  8  2  0
 16 10  1  0
  1 24  1  0
  1 25  1  0
  1 26  1  0
  2 27  1  0
  2 28  1  0
  3 29  1  0
  3 30  1  0
  5 31  1  0
  6 32  1  0
 11 33  1  0
 12 34  1  0
 13 35  1  0
 15 36  1  0
 20 37  1  0
 21 38  1  0
 23 39  1  0
 23 40  1  0
 23 41  1  0
M  END
>  <meeko>  (2) 
{"is_sidechain": [false], "free_energy": -9.297, "intermolecular_energy": -11.478, "internal_energy": -0.541}

$$$$
cand_055_out
     RDKit          3D

 41 43  0  0  0  0  0  0  0  0999 V2000
   23.2580  -26.6560   44.5520 C   0  0  0  0  0  0  0  0  0  0  0  0
   22.1810  -27.2230   43.6420 C   0  0  0  0  0  0  0  0  0  0  0  0
   22.3760  -26.7670   42.1940 C   0  0  0  0  0  0  0  0  0  0  0  0
   21.9250  -27.8200   41.2070 C   0  0  0  0  0  0  0  0  0  0  0  0
   20.7600  -27.5780   40.4600 C   0  0  0  0  0  0  0  0  0  0  0  0
   20.2880  -28.5170   39.5390 C   0  0  0  0  0  0  0  0  0  0  0  0
   20.9680  -29.7210   39.3360 C   0  0  0  0  0  0  0  0  0  0  0  0
   20.4770  -30.7420   38.3860 C   0  0  0  0  0  0  0  0  0  0  0  0
   20.0520  -31.9060   39.0160 O   0  0  0  0  0  0  0  0  0  0  0  0
   19.5710  -32.9370   38.2520 C   0  0  0  0  0  0  0  0  0  0  0  0
   19.1420  -34.0810   38.9270 C   0  0  0  0  0  0  0  0  0  0  0  0
   18.6420  -35.1690   38.2080 C   0  0  0  0  0  0  0  0  0  0  0  0
   18.5730  -35.1140   36.8140 C   0  0  0  0  0  0  0  0  0  0  0  0
   19.0010  -33.9710   36.1430 C   0  0  0  0  0  0  0  0  0  0  0  0
   18.9070  -33.9850   34.7780 O   0  0  0  0  0  0  0  0  0  0  0  0
   19.5000  -32.8830   36.8630 C   0  0  0  0  0  0  0  0  0  0  0  0
   19.9610  -31.6640   36.1970 C   0  0  0  0  0  0  0  0  0  0  0  0
   19.9380  -31.5420   34.9740 O   0  0  0  0  0  0  0  0  0  0  0  0
   20.4660  -30.5650   37.0520 C   0  0  0  0  0  0  0  0  0  0  0  0
   20.9100  -29.4230   36.4100 O   0  0  0  0  0  0  0  0  0  0  0  0
   22.1230  -29.9700   40.0930 C   0  0  0  0  0  0  0  0  0  0  0  0
   22.6090  -29.0380   41.0310 C   0  0  0  0  0  0  0  0  0  0  0  0
   23.8630  -29.3650   41.7940 C   0  0  0  0  0  0  0  0  0  0  0  0
   22.9683  -26.8085   45.6022 H   0  0  0  0  0  0  0  0  0  0  0  0
   24.2110  -27.1693   44.3563 H   0  0  0  0  0  0  0  0  0  0  0  0
   23.3742  -25.5798   44.3563 H   0  0  0  0  0  0  0  0  0  0  0  0
   22.2224  -28.3216   43.6799 H   0  0  0  0  0  0  0  0  0  0  0  0
   21.2045  -26.8568   43.9916 H   0  0  0  0  0  0  0  0  0  0  0  0
   21.7916  -25.8500   42.0279 H   0  0  0  0  0  0  0  0  0  0  0  0
   23.4493  -26.5868   42.0344 H   0  0  0  0  0  0  0  0  0  0  0  0
   20.2112  -26.6353   40.6022 H   0  0  0  0  0  0  0  0  0  0  0  0
   19.3718  -28.3063   38.9679 H   0  0  0  0  0  0  0  0  0  0  0  0
   19.1977  -34.1256   40.0247 H   0  0  0  0  0  0  0  0  0  0  0  0
   18.3023  -36.0699   38.7399 H   0  0  0  0  0  0  0  0  0  0  0  0
   18.1814  -35.9716   36.2473 H   0  0  0  0  0  0  0  0  0  0  0  0
   19.3040  -33.3020   34.2740 H   0  0  0  0  0  0  0  0  0  0  0  0
   20.5230  -28.5930   36.6090 H   0  0  0  0  0  0  0  0  0  0  0  0
   22.6630  -30.9176   39.9503 H   0  0  0  0  0  0  0  0  0  0  0  0
   23.6596  -29.3120   42.8737 H   0  0  0  0  0  0  0  0  0  0  0  0
   24.1967  -30.3802   41.5332 H   0  0  0  0  0  0  0  0  0  0  0  0
   24.6499  -28.6420   41.5332 H   0  0  0  0  0  0  0  0  0  0  0  0
  1  2  1  0
  2  3  1  0
  3  4  1  0
  4  5  2  0
  5  6  1  0
  6  7  2  0
  7  8  1  0
  8  9  1  0
  9 10  1  0
 10 11  2  0
 11 12  1  0
 12 13  2  0
 13 14  1  0
 14 15  1  0
 14 16  2  0
 16 17  1  0
 17 18  2  0
 17 19  1  0
 19 20  1  0
  7 21  1  0
 21 22  2  0
 22 23  1  0
 22  4  1  0
 19  8  2  0
 16 10  1  0
  1 24  1  0
  1 25  1  0
  1 26  1  0
  2 27  1  0
  2 28  1  0
  3 29  1  0
  3 30  1  0
  5 31  1  0
  6 32  1  0
 11 33  1  0
 12 34  1  0
 13 35  1  0
 15 36  1  0
 20 37  1  0
 21 38  1  0
 23 39  1  0
 23 40  1  0
 23 41  1  0
M  END
>  <meeko>  (3) 
{"is_sidechain": [false], "free_energy": -8.906, "intermolecular_energy": -11.223, "internal_energy": -0.314}

$$$$
cand_055_out
     RDKit          3D

 41 43  0  0  0  0  0  0  0  0999 V2000
   24.1990  -26.5180   43.5820 C   0  0  0  0  0  0  0  0  0  0  0  0
   23.0660  -27.4520   43.1880 C   0  0  0  0  0  0  0  0  0  0  0  0
   22.2060  -26.8480   42.0760 C   0  0  0  0  0  0  0  0  0  0  0  0
   21.6980  -27.9060   41.1210 C   0  0  0  0  0  0  0  0  0  0  0  0
   22.5800  -28.9230   40.7220 C   0  0  0  0  0  0  0  0  0  0  0  0
   22.1720  -29.9220   39.8350 C   0  0  0  0  0  0  0  0  0  0  0  0
   20.8700  -29.9350   39.3260 C   0  0  0  0  0  0  0  0  0  0  0  0
   20.4200  -30.9670   38.3670 C   0  0  0  0  0  0  0  0  0  0  0  0
   20.7260  -30.6490   37.0480 O   0  0  0  0  0  0  0  0  0  0  0  0
   20.3650  -31.5220   36.0540 C   0  0  0  0  0  0  0  0  0  0  0  0
   20.7050  -31.1700   34.7470 C   0  0  0  0  0  0  0  0  0  0  0  0
   20.3650  -32.0130   33.6870 C   0  0  0  0  0  0  0  0  0  0  0  0
   19.6830  -33.2070   33.9340 C   0  0  0  0  0  0  0  0  0  0  0  0
   19.3450  -33.5550   35.2390 C   0  0  0  0  0  0  0  0  0  0  0  0
   18.6770  -34.7370   35.4090 O   0  0  0  0  0  0  0  0  0  0  0  0
   19.6870  -32.7110   36.2990 C   0  0  0  0  0  0  0  0  0  0  0  0
   19.3490  -33.0400   37.6850 C   0  0  0  0  0  0  0  0  0  0  0  0
   18.7450  -34.0690   37.9810 O   0  0  0  0  0  0  0  0  0  0  0  0
   19.7630  -32.0820   38.7370 C   0  0  0  0  0  0  0  0  0  0  0  0
   19.4280  -32.3970   40.0410 O   0  0  0  0  0  0  0  0  0  0  0  0
   19.9930  -28.9100   39.7130 C   0  0  0  0  0  0  0  0  0  0  0  0
   20.3890  -27.8920   40.6000 C   0  0  0  0  0  0  0  0  0  0  0  0
   19.3910  -26.8350   40.9840 C   0  0  0  0  0  0  0  0  0  0  0  0
   24.2649  -26.4637   44.6787 H   0  0  0  0  0  0  0  0  0  0  0  0
   25.1473  -26.9003   43.1762 H   0  0  0  0  0  0  0  0  0  0  0  0
   24.0047  -25.5142   43.1762 H   0  0  0  0  0  0  0  0  0  0  0  0
   23.4922  -28.4025   42.8346 H   0  0  0  0  0  0  0  0  0  0  0  0
   22.4284  -27.6141   44.0696 H   0  0  0  0  0  0  0  0  0  0  0  0
   21.3452  -26.3355   42.5302 H   0  0  0  0  0  0  0  0  0  0  0  0
   22.8296  -26.1438   41.5058 H   0  0  0  0  0  0  0  0  0  0  0  0
   23.6078  -28.9332   41.1138 H   0  0  0  0  0  0  0  0  0  0  0  0
   22.8822  -30.7062   39.5340 H   0  0  0  0  0  0  0  0  0  0  0  0
   21.2405  -30.2291   34.5520 H   0  0  0  0  0  0  0  0  0  0  0  0
   20.6343  -31.7368   32.6569 H   0  0  0  0  0  0  0  0  0  0  0  0
   19.4136  -33.8707   33.0992 H   0  0  0  0  0  0  0  0  0  0  0  0
   18.1160  -35.0600   34.7320 H   0  0  0  0  0  0  0  0  0  0  0  0
   19.9970  -32.9380   40.5530 H   0  0  0  0  0  0  0  0  0  0  0  0
   18.9686  -28.9022   39.3122 H   0  0  0  0  0  0  0  0  0  0  0  0
   19.3295  -26.7698   42.0803 H   0  0  0  0  0  0  0  0  0  0  0  0
   19.7098  -25.8643   40.5763 H   0  0  0  0  0  0  0  0  0  0  0  0
   18.4037  -27.0975   40.5763 H   0  0  0  0  0  0  0  0  0  0  0  0
  1  2  1  0
  2  3  1  0
  3  4  1  0
  4  5  2  0
  5  6  1  0
  6  7  2  0
  7  8  1  0
  8  9  1  0
  9 10  1  0
 10 11  2  0
 11 12  1  0
 12 13  2  0
 13 14  1  0
 14 15  1  0
 14 16  2  0
 16 17  1  0
 17 18  2  0
 17 19  1  0
 19 20  1  0
  7 21  1  0
 21 22  2  0
 22 23  1  0
 22  4  1  0
 19  8  2  0
 16 10  1  0
  1 24  1  0
  1 25  1  0
  1 26  1  0
  2 27  1  0
  2 28  1  0
  3 29  1  0
  3 30  1  0
  5 31  1  0
  6 32  1  0
 11 33  1  0
 12 34  1  0
 13 35  1  0
 15 36  1  0
 20 37  1  0
 21 38  1  0
 23 39  1  0
 23 40  1  0
 23 41  1  0
M  END
>  <meeko>  (4) 
{"is_sidechain": [false], "free_energy": -8.678, "intermolecular_energy": -10.694, "internal_energy": -0.562}

$$$$
cand_055_out
     RDKit          3D

 41 43  0  0  0  0  0  0  0  0999 V2000
   20.0790  -33.2100   34.0560 C   0  0  0  0  0  0  0  0  0  0  0  0
   20.1000  -32.0010   34.9770 C   0  0  0  0  0  0  0  0  0  0  0  0
   19.6820  -32.3760   36.4000 C   0  0  0  0  0  0  0  0  0  0  0  0
   20.1260  -31.3390   37.4080 C   0  0  0  0  0  0  0  0  0  0  0  0
   20.7770  -30.1870   36.9380 C   0  0  0  0  0  0  0  0  0  0  0  0
   21.2190  -29.1990   37.8210 C   0  0  0  0  0  0  0  0  0  0  0  0
   21.0190  -29.3320   39.1970 C   0  0  0  0  0  0  0  0  0  0  0  0
   21.4980  -28.3120   40.1560 C   0  0  0  0  0  0  0  0  0  0  0  0
   22.3870  -28.8280   41.0930 O   0  0  0  0  0  0  0  0  0  0  0  0
   22.9100  -27.9890   42.0430 C   0  0  0  0  0  0  0  0  0  0  0  0
   23.8090  -28.5450   42.9540 C   0  0  0  0  0  0  0  0  0  0  0  0
   24.3770  -27.7460   43.9490 C   0  0  0  0  0  0  0  0  0  0  0  0
   24.0460  -26.3920   44.0330 C   0  0  0  0  0  0  0  0  0  0  0  0
   23.1490  -25.8400   43.1220 C   0  0  0  0  0  0  0  0  0  0  0  0
   22.8680  -24.5080   43.2630 O   0  0  0  0  0  0  0  0  0  0  0  0
   22.5810  -26.6400   42.1270 C   0  0  0  0  0  0  0  0  0  0  0  0
   21.6340  -26.0990   41.1510 C   0  0  0  0  0  0  0  0  0  0  0  0
   21.2880  -24.9190   41.1640 O   0  0  0  0  0  0  0  0  0  0  0  0
   21.0950  -27.0290   40.1310 C   0  0  0  0  0  0  0  0  0  0  0  0
   20.1910  -26.5090   39.2220 O   0  0  0  0  0  0  0  0  0  0  0  0
   20.3820  -30.4900   39.6690 C   0  0  0  0  0  0  0  0  0  0  0  0
   19.9370  -31.4990   38.7950 C   0  0  0  0  0  0  0  0  0  0  0  0
   19.2470  -32.7050   39.3700 C   0  0  0  0  0  0  0  0  0  0  0  0
   20.0630  -34.1299   34.6589 H   0  0  0  0  0  0  0  0  0  0  0  0
   19.1814  -33.1719   33.4213 H   0  0  0  0  0  0  0  0  0  0  0  0
   20.9774  -33.2031   33.4213 H   0  0  0  0  0  0  0  0  0  0  0  0
   21.1188  -31.5868   35.0007 H   0  0  0  0  0  0  0  0  0  0  0  0
   19.3858  -31.2590   34.5906 H   0  0  0  0  0  0  0  0  0  0  0  0
   18.5861  -32.4629   36.4379 H   0  0  0  0  0  0  0  0  0  0  0  0
   20.1637  -33.3309   36.6573 H   0  0  0  0  0  0  0  0  0  0  0  0
   20.9414  -30.0606   35.8577 H   0  0  0  0  0  0  0  0  0  0  0  0
   21.7297  -28.3072   37.4288 H   0  0  0  0  0  0  0  0  0  0  0  0
   24.0701  -29.6116   42.8886 H   0  0  0  0  0  0  0  0  0  0  0  0
   25.0858  -28.1839   44.6672 H   0  0  0  0  0  0  0  0  0  0  0  0
   24.4928  -25.7629   44.8170 H   0  0  0  0  0  0  0  0  0  0  0  0
   22.1070  -24.1450   42.8540 H   0  0  0  0  0  0  0  0  0  0  0  0
   19.5590  -27.0700   38.8170 H   0  0  0  0  0  0  0  0  0  0  0  0
   20.2264  -30.6121   40.7511 H   0  0  0  0  0  0  0  0  0  0  0  0
   19.2757  -32.6549   40.4685 H   0  0  0  0  0  0  0  0  0  0  0  0
   18.2007  -32.7252   39.0311 H   0  0  0  0  0  0  0  0  0  0  0  0
   19.7598  -33.6172   39.0311 H   0  0  0  0  0  0  0  0  0  0  0  0
  1  2  1  0
  2  3  1  0
  3  4  1  0
  4  5  2  0
  5  6  1  0
  6  7  2  0
  7  8  1  0
  8  9  1  0
  9 10  1  0
 10 11  2  0
 11 12  1  0
 12 13  2  0
 13 14  1  0
 14 15  1  0
 14 16  2  0
 16 17  1  0
 17 18  2  0
 17 19  1  0
 19 20  1  0
  7 21  1  0
 21 22  2  0
 22 23  1  0
 22  4  1  0
 19  8  2  0
 16 10  1  0
  1 24  1  0
  1 25  1  0
  1 26  1  0
  2 27  1  0
  2 28  1  0
  3 29  1  0
  3 30  1  0
  5 31  1  0
  6 32  1  0
 11 33  1  0
 12 34  1  0
 13 35  1  0
 15 36  1  0
 20 37  1  0
 21 38  1  0
 23 39  1  0
 23 40  1  0
 23 41  1  0
M  END
>  <meeko>  (5) 
{"is_sidechain": [false], "free_energy": -8.579, "intermolecular_energy": -10.735, "internal_energy": -0.398}

$$$$
cand_055_out
     RDKit          3D

 41 43  0  0  0  0  0  0  0  0999 V2000
   21.2140  -24.5530   46.8970 C   0  0  0  0  0  0  0  0  0  0  0  0
   21.4320  -24.5920   45.3930 C   0  0  0  0  0  0  0  0  0  0  0  0
   22.5350  -25.5820   45.0150 C   0  0  0  0  0  0  0  0  0  0  0  0
   22.2140  -26.3190   43.7340 C   0  0  0  0  0  0  0  0  0  0  0  0
   21.0250  -25.9960   43.0580 C   0  0  0  0  0  0  0  0  0  0  0  0
   20.6690  -26.6490   41.8760 C   0  0  0  0  0  0  0  0  0  0  0  0
   21.4920  -27.6400   41.3330 C   0  0  0  0  0  0  0  0  0  0  0  0
   21.1270  -28.3640   40.0960 C   0  0  0  0  0  0  0  0  0  0  0  0
   20.7470  -29.6800   40.3330 O   0  0  0  0  0  0  0  0  0  0  0  0
   20.3820  -30.4660   39.2710 C   0  0  0  0  0  0  0  0  0  0  0  0
   19.9930  -31.7760   39.5560 C   0  0  0  0  0  0  0  0  0  0  0  0
   19.6120  -32.6310   38.5200 C   0  0  0  0  0  0  0  0  0  0  0  0
   19.6200  -32.1770   37.1990 C   0  0  0  0  0  0  0  0  0  0  0  0
   20.0070  -30.8700   36.9180 C   0  0  0  0  0  0  0  0  0  0  0  0
   19.9930  -30.4910   35.6030 O   0  0  0  0  0  0  0  0  0  0  0  0
   20.3880  -30.0150   37.9550 C   0  0  0  0  0  0  0  0  0  0  0  0
   20.8030  -28.6340   37.7020 C   0  0  0  0  0  0  0  0  0  0  0  0
   20.8430  -28.1640   36.5670 O   0  0  0  0  0  0  0  0  0  0  0  0
   21.1810  -27.8070   38.8720 C   0  0  0  0  0  0  0  0  0  0  0  0
   21.5840  -26.5080   38.6190 O   0  0  0  0  0  0  0  0  0  0  0  0
   22.6720  -27.9740   42.0160 C   0  0  0  0  0  0  0  0  0  0  0  0
   23.0430  -27.3320   43.2120 C   0  0  0  0  0  0  0  0  0  0  0  0
   24.3300  -27.7290   43.8800 C   0  0  0  0  0  0  0  0  0  0  0  0
   22.1714  -24.7243   47.4108 H   0  0  0  0  0  0  0  0  0  0  0  0
   20.8146  -23.5691   47.1842 H   0  0  0  0  0  0  0  0  0  0  0  0
   20.4983  -25.3374   47.1842 H   0  0  0  0  0  0  0  0  0  0  0  0
   20.4951  -24.8958   44.9032 H   0  0  0  0  0  0  0  0  0  0  0  0
   21.7382  -23.5889   45.0612 H   0  0  0  0  0  0  0  0  0  0  0  0
   23.4777  -25.0309   44.8820 H   0  0  0  0  0  0  0  0  0  0  0  0
   22.6207  -26.3231   45.8233 H   0  0  0  0  0  0  0  0  0  0  0  0
   20.3646  -25.2168   43.4662 H   0  0  0  0  0  0  0  0  0  0  0  0
   19.7314  -26.3808   41.3670 H   0  0  0  0  0  0  0  0  0  0  0  0
   19.9866  -32.1344   40.5960 H   0  0  0  0  0  0  0  0  0  0  0  0
   19.3052  -33.6633   38.7443 H   0  0  0  0  0  0  0  0  0  0  0  0
   19.3211  -32.8510   36.3827 H   0  0  0  0  0  0  0  0  0  0  0  0
   20.7930  -30.4640   35.1150 H   0  0  0  0  0  0  0  0  0  0  0  0
   22.4490  -26.2330   38.8490 H   0  0  0  0  0  0  0  0  0  0  0  0
   23.3243  -28.7587   41.6052 H   0  0  0  0  0  0  0  0  0  0  0  0
   24.2036  -27.6900   44.9720 H   0  0  0  0  0  0  0  0  0  0  0  0
   24.5993  -28.7520   43.5784 H   0  0  0  0  0  0  0  0  0  0  0  0
   25.1288  -27.0355   43.5784 H   0  0  0  0  0  0  0  0  0  0  0  0
  1  2  1  0
  2  3  1  0
  3  4  1  0
  4  5  2  0
  5  6  1  0
  6  7  2  0
  7  8  1  0
  8  9  1  0
  9 10  1  0
 10 11  2  0
 11 12  1  0
 12 13  2  0
 13 14  1  0
 14 15  1  0
 14 16  2  0
 16 17  1  0
 17 18  2  0
 17 19  1  0
 19 20  1  0
  7 21  1  0
 21 22  2  0
 22 23  1  0
 22  4  1  0
 19  8  2  0
 16 10  1  0
  1 24  1  0
  1 25  1  0
  1 26  1  0
  2 27  1  0
  2 28  1  0
  3 29  1  0
  3 30  1  0
  5 31  1  0
  6 32  1  0
 11 33  1  0
 12 34  1  0
 13 35  1  0
 15 36  1  0
 20 37  1  0
 21 38  1  0
 23 39  1  0
 23 40  1  0
 23 41  1  0
M  END
>  <meeko>  (6) 
{"is_sidechain": [false], "free_energy": -8.341, "intermolecular_energy": -10.333, "internal_energy": -0.507}

$$$$
cand_055_out
     RDKit          3D

 41 43  0  0  0  0  0  0  0  0999 V2000
   20.3920  -24.0230   41.7460 C   0  0  0  0  0  0  0  0  0  0  0  0
   20.3240  -25.2010   40.7870 C   0  0  0  0  0  0  0  0  0  0  0  0
   20.5940  -26.5230   41.5070 C   0  0  0  0  0  0  0  0  0  0  0  0
   20.4430  -27.7090   40.5810 C   0  0  0  0  0  0  0  0  0  0  0  0
   19.2570  -27.8280   39.8370 C   0  0  0  0  0  0  0  0  0  0  0  0
   19.0550  -28.9060   38.9710 C   0  0  0  0  0  0  0  0  0  0  0  0
   20.0330  -29.8920   38.8220 C   0  0  0  0  0  0  0  0  0  0  0  0
   19.8350  -31.0570   37.9310 C   0  0  0  0  0  0  0  0  0  0  0  0
   20.2190  -30.8040   36.6190 O   0  0  0  0  0  0  0  0  0  0  0  0
   20.0880  -31.8000   35.6860 C   0  0  0  0  0  0  0  0  0  0  0  0
   20.4990  -31.5080   34.3840 C   0  0  0  0  0  0  0  0  0  0  0  0
   20.3910  -32.4770   33.3850 C   0  0  0  0  0  0  0  0  0  0  0  0
   19.8720  -33.7380   33.6870 C   0  0  0  0  0  0  0  0  0  0  0  0
   19.4630  -34.0270   34.9860 C   0  0  0  0  0  0  0  0  0  0  0  0
   18.9630  -35.2800   35.2120 O   0  0  0  0  0  0  0  0  0  0  0  0
   19.5720  -33.0570   35.9860 C   0  0  0  0  0  0  0  0  0  0  0  0
   19.1530  -33.3200   37.3640 C   0  0  0  0  0  0  0  0  0  0  0  0
   18.6810  -34.4020   37.7050 O   0  0  0  0  0  0  0  0  0  0  0  0
   19.3170  -32.2260   38.3500 C   0  0  0  0  0  0  0  0  0  0  0  0
   18.9060  -32.4820   39.6450 O   0  0  0  0  0  0  0  0  0  0  0  0
   21.2110  -29.7830   39.5760 C   0  0  0  0  0  0  0  0  0  0  0  0
   21.4290  -28.7080   40.4590 C   0  0  0  0  0  0  0  0  0  0  0  0
   22.7230  -28.6460   41.2220 C   0  0  0  0  0  0  0  0  0  0  0  0
   20.3707  -24.3919   42.7821 H   0  0  0  0  0  0  0  0  0  0  0  0
   21.3239  -23.4642   41.5749 H   0  0  0  0  0  0  0  0  0  0  0  0
   19.5306  -23.3607   41.5749 H   0  0  0  0  0  0  0  0  0  0  0  0
   19.3216  -25.2376   40.3356 H   0  0  0  0  0  0  0  0  0  0  0  0
   21.0951  -25.0636   40.0147 H   0  0  0  0  0  0  0  0  0  0  0  0
   21.6200  -26.5093   41.9033 H   0  0  0  0  0  0  0  0  0  0  0  0
   19.8578  -26.6269   42.3177 H   0  0  0  0  0  0  0  0  0  0  0  0
   18.4753  -27.0606   39.9378 H   0  0  0  0  0  0  0  0  0  0  0  0
   18.1169  -28.9787   38.4013 H   0  0  0  0  0  0  0  0  0  0  0  0
   20.9077  -30.5150   34.1456 H   0  0  0  0  0  0  0  0  0  0  0  0
   20.7149  -32.2473   32.3592 H   0  0  0  0  0  0  0  0  0  0  0  0
   19.7865  -34.5015   32.8998 H   0  0  0  0  0  0  0  0  0  0  0  0
   19.5300  -35.9650   35.5090 H   0  0  0  0  0  0  0  0  0  0  0  0
   18.0970  -32.9280   39.8000 H   0  0  0  0  0  0  0  0  0  0  0  0
   21.9850  -30.5580   39.4747 H   0  0  0  0  0  0  0  0  0  0  0  0
   22.5129  -28.6561   42.3017 H   0  0  0  0  0  0  0  0  0  0  0  0
   23.3444  -29.5154   40.9613 H   0  0  0  0  0  0  0  0  0  0  0  0
   23.2585  -27.7212   40.9613 H   0  0  0  0  0  0  0  0  0  0  0  0
  1  2  1  0
  2  3  1  0
  3  4  1  0
  4  5  2  0
  5  6  1  0
  6  7  2  0
  7  8  1  0
  8  9  1  0
  9 10  1  0
 10 11  2  0
 11 12  1  0
 12 13  2  0
 13 14  1  0
 14 15  1  0
 14 16  2  0
 16 17  1  0
 17 18  2  0
 17 19  1  0
 19 20  1  0
  7 21  1  0
 21 22  2  0
 22 23  1  0
 22  4  1  0
 19  8  2  0
 16 10  1  0
  1 24  1  0
  1 25  1  0
  1 26  1  0
  2 27  1  0
  2 28  1  0
  3 29  1  0
  3 30  1  0
  5 31  1  0
  6 32  1  0
 11 33  1  0
 12 34  1  0
 13 35  1  0
 15 36  1  0
 20 37  1  0
 21 38  1  0
 23 39  1  0
 23 40  1  0
 23 41  1  0
M  END
>  <meeko>  (7) 
{"is_sidechain": [false], "free_energy": -8.257, "intermolecular_energy": -10.193, "internal_energy": -0.543}

$$$$
cand_055_out
     RDKit          3D

 41 43  0  0  0  0  0  0  0  0999 V2000
   20.4890  -31.8150   33.6230 C   0  0  0  0  0  0  0  0  0  0  0  0
   20.7880  -30.9650   34.8470 C   0  0  0  0  0  0  0  0  0  0  0  0
   20.0460  -31.4830   36.0810 C   0  0  0  0  0  0  0  0  0  0  0  0
   20.4990  -30.7850   37.3440 C   0  0  0  0  0  0  0  0  0  0  0  0
   21.2350  -29.5950   37.2210 C   0  0  0  0  0  0  0  0  0  0  0  0
   21.6890  -28.9090   38.3500 C   0  0  0  0  0  0  0  0  0  0  0  0
   21.4170  -29.3910   39.6340 C   0  0  0  0  0  0  0  0  0  0  0  0
   21.9060  -28.6980   40.8450 C   0  0  0  0  0  0  0  0  0  0  0  0
   21.1070  -27.6200   41.2110 O   0  0  0  0  0  0  0  0  0  0  0  0
   21.4470  -26.8890   42.3190 C   0  0  0  0  0  0  0  0  0  0  0  0
   20.6090  -25.8250   42.6580 C   0  0  0  0  0  0  0  0  0  0  0  0
   20.8990  -25.0380   43.7750 C   0  0  0  0  0  0  0  0  0  0  0  0
   22.0270  -25.3130   44.5510 C   0  0  0  0  0  0  0  0  0  0  0  0
   22.8610  -26.3750   44.2110 C   0  0  0  0  0  0  0  0  0  0  0  0
   23.9480  -26.5880   45.0140 O   0  0  0  0  0  0  0  0  0  0  0  0
   22.5690  -27.1630   43.0940 C   0  0  0  0  0  0  0  0  0  0  0  0
   23.4200  -28.2880   42.7020 C   0  0  0  0  0  0  0  0  0  0  0  0
   24.4330  -28.5880   43.3310 O   0  0  0  0  0  0  0  0  0  0  0  0
   23.0200  -29.0650   41.5060 C   0  0  0  0  0  0  0  0  0  0  0  0
   23.8390  -30.1170   41.1380 O   0  0  0  0  0  0  0  0  0  0  0  0
   20.6950  -30.5880   39.7570 C   0  0  0  0  0  0  0  0  0  0  0  0
   20.2360  -31.2950   38.6300 C   0  0  0  0  0  0  0  0  0  0  0  0
   19.4530  -32.5620   38.8380 C   0  0  0  0  0  0  0  0  0  0  0  0
   20.1397  -32.8079   33.9426 H   0  0  0  0  0  0  0  0  0  0  0  0
   19.7082  -31.3281   33.0203 H   0  0  0  0  0  0  0  0  0  0  0  0
   21.4027  -31.9242   33.0203 H   0  0  0  0  0  0  0  0  0  0  0  0
   21.8700  -30.9889   35.0437 H   0  0  0  0  0  0  0  0  0  0  0  0
   20.4505  -29.9375   34.6459 H   0  0  0  0  0  0  0  0  0  0  0  0
   18.9679  -31.3109   35.9464 H   0  0  0  0  0  0  0  0  0  0  0  0
   20.2654  -32.5557   36.1862 H   0  0  0  0  0  0  0  0  0  0  0  0
   21.4574  -29.1970   36.2199 H   0  0  0  0  0  0  0  0  0  0  0  0
   22.2661  -27.9806   38.2277 H   0  0  0  0  0  0  0  0  0  0  0  0
   19.7213  -25.6067   42.0461 H   0  0  0  0  0  0  0  0  0  0  0  0
   20.2381  -24.2007   44.0437 H   0  0  0  0  0  0  0  0  0  0  0  0
   22.2563  -24.6917   45.4293 H   0  0  0  0  0  0  0  0  0  0  0  0
   24.7940  -26.7180   44.6320 H   0  0  0  0  0  0  0  0  0  0  0  0
   24.0570  -30.2470   40.2360 H   0  0  0  0  0  0  0  0  0  0  0  0
   20.4822  -30.9842   40.7609 H   0  0  0  0  0  0  0  0  0  0  0  0
   19.3375  -32.7489   39.9158 H   0  0  0  0  0  0  0  0  0  0  0  0
   18.4604  -32.4598   38.3752 H   0  0  0  0  0  0  0  0  0  0  0  0
   19.9884  -33.4041   38.3752 H   0  0  0  0  0  0  0  0  0  0  0  0
  1  2  1  0
  2  3  1  0
  3  4  1  0
  4  5  2  0
  5  6  1  0
  6  7  2  0
  7  8  1  0
  8  9  1  0
  9 10  1  0
 10 11  2  0
 11 12  1  0
 12 13  2  0
 13 14  1  0
 14 15  1  0
 14 16  2  0
 16 17  1  0
 17 18  2  0
 17 19  1  0
 19 20  1  0
  7 21  1  0
 21 22  2  0
 22 23  1  0
 22  4  1  0
 19  8  2  0
 16 10  1  0
  1 24  1  0
  1 25  1  0
  1 26  1  0
  2 27  1  0
  2 28  1  0
  3 29  1  0
  3 30  1  0
  5 31  1  0
  6 32  1  0
 11 33  1  0
 12 34  1  0
 13 35  1  0
 15 36  1  0
 20 37  1  0
 21 38  1  0
 23 39  1  0
 23 40  1  0
 23 41  1  0
M  END
>  <meeko>  (8) 
{"is_sidechain": [false], "free_energy": -8.235, "intermolecular_energy": -10.184, "internal_energy": -0.525}

$$$$
cand_055_out
     RDKit          3D

 41 43  0  0  0  0  0  0  0  0999 V2000
   24.4010  -25.9610   43.7230 C   0  0  0  0  0  0  0  0  0  0  0  0
   23.3750  -26.4670   44.7230 C   0  0  0  0  0  0  0  0  0  0  0  0
   22.8670  -27.8600   44.3450 C   0  0  0  0  0  0  0  0  0  0  0  0
   22.4130  -27.9220   42.9040 C   0  0  0  0  0  0  0  0  0  0  0  0
   21.3180  -27.1320   42.5150 C   0  0  0  0  0  0  0  0  0  0  0  0
   20.8460  -27.1530   41.2010 C   0  0  0  0  0  0  0  0  0  0  0  0
   21.4570  -27.9590   40.2370 C   0  0  0  0  0  0  0  0  0  0  0  0
   20.9630  -28.0190   38.8440 C   0  0  0  0  0  0  0  0  0  0  0  0
   21.0280  -29.2980   38.3020 O   0  0  0  0  0  0  0  0  0  0  0  0
   20.6000  -29.4950   37.0150 C   0  0  0  0  0  0  0  0  0  0  0  0
   20.6690  -30.7970   36.5160 C   0  0  0  0  0  0  0  0  0  0  0  0
   20.2510  -31.0670   35.2120 C   0  0  0  0  0  0  0  0  0  0  0  0
   19.7650  -30.0360   34.4050 C   0  0  0  0  0  0  0  0  0  0  0  0
   19.6960  -28.7380   34.9050 C   0  0  0  0  0  0  0  0  0  0  0  0
   19.2110  -27.7760   34.0620 O   0  0  0  0  0  0  0  0  0  0  0  0
   20.1140  -28.4690   36.2110 C   0  0  0  0  0  0  0  0  0  0  0  0
   20.0590  -27.1190   36.7750 C   0  0  0  0  0  0  0  0  0  0  0  0
   19.6500  -26.1590   36.1260 O   0  0  0  0  0  0  0  0  0  0  0  0
   20.5190  -26.9410   38.1720 C   0  0  0  0  0  0  0  0  0  0  0  0
   20.4750  -25.6590   38.6890 O   0  0  0  0  0  0  0  0  0  0  0  0
   22.5410  -28.7600   40.6280 C   0  0  0  0  0  0  0  0  0  0  0  0
   23.0260  -28.7570   41.9500 C   0  0  0  0  0  0  0  0  0  0  0  0
   24.2030  -29.6280   42.2930 C   0  0  0  0  0  0  0  0  0  0  0  0
   25.2607  -25.5370   44.2625 H   0  0  0  0  0  0  0  0  0  0  0  0
   24.7398  -26.7954   43.0913 H   0  0  0  0  0  0  0  0  0  0  0  0
   23.9453  -25.1843   43.0913 H   0  0  0  0  0  0  0  0  0  0  0  0
   23.8389  -26.5134   45.7193 H   0  0  0  0  0  0  0  0  0  0  0  0
   22.5202  -25.7747   44.7223 H   0  0  0  0  0  0  0  0  0  0  0  0
   23.6788  -28.5872   44.4938 H   0  0  0  0  0  0  0  0  0  0  0  0
   22.0035  -28.0936   44.9852 H   0  0  0  0  0  0  0  0  0  0  0  0
   20.8249  -26.4870   43.2572 H   0  0  0  0  0  0  0  0  0  0  0  0
   19.9844  -26.5287   40.9220 H   0  0  0  0  0  0  0  0  0  0  0  0
   21.0526  -31.6097   37.1503 H   0  0  0  0  0  0  0  0  0  0  0  0
   20.3044  -32.0932   34.8194 H   0  0  0  0  0  0  0  0  0  0  0  0
   19.4374  -30.2487   33.3767 H   0  0  0  0  0  0  0  0  0  0  0  0
   19.4930  -27.7510   33.1690 H   0  0  0  0  0  0  0  0  0  0  0  0
   21.0620  -25.0030   38.3670 H   0  0  0  0  0  0  0  0  0  0  0  0
   23.0247  -29.4075   39.8818 H   0  0  0  0  0  0  0  0  0  0  0  0
   24.2998  -29.6997   43.3864 H   0  0  0  0  0  0  0  0  0  0  0  0
   24.0508  -30.6327   41.8717 H   0  0  0  0  0  0  0  0  0  0  0  0
   25.1193  -29.1888   41.8717 H   0  0  0  0  0  0  0  0  0  0  0  0
  1  2  1  0
  2  3  1  0
  3  4  1  0
  4  5  2  0
  5  6  1  0
  6  7  2  0
  7  8  1  0
  8  9  1  0
  9 10  1  0
 10 11  2  0
 11 12  1  0
 12 13  2  0
 13 14  1  0
 14 15  1  0
 14 16  2  0
 16 17  1  0
 17 18  2  0
 17 19  1  0
 19 20  1  0
  7 21  1  0
 21 22  2  0
 22 23  1  0
 22  4  1  0
 19  8  2  0
 16 10  1  0
  1 24  1  0
  1 25  1  0
  1 26  1  0
  2 27  1  0
  2 28  1  0
  3 29  1  0
  3 30  1  0
  5 31  1  0
  6 32  1  0
 11 33  1  0
 12 34  1  0
 13 35  1  0
 15 36  1  0
 20 37  1  0
 21 38  1  0
 23 39  1  0
 23 40  1  0
 23 41  1  0
M  END
>  <meeko>  (9) 
{"is_sidechain": [false], "free_energy": -8.06, "intermolecular_energy": -10.204, "internal_energy": -0.289}

$$$$
