DTQ_out
     RDKit          3D

 37 39  0  0  0  0  0  0  0  0999 V2000
  177.7390   23.7630   47.6210 C   0  0  0  0  0  0  0  0  0  0  0  0
  176.9870   22.5620   47.4850 O   0  0  0  0  0  0  0  0  0  0  0  0
  177.6760   21.4670   47.0290 C   0  0  0  0  0  0  0  0  0  0  0  0
  179.0230   21.7330   46.7440 C   0  0  0  0  0  0  0  0  0  0  0  0
  179.8920   20.7570   46.2820 C   0  0  0  0  0  0  0  0  0  0  0  0
  181.1550   21.1000   46.0050 N   0  0  0  0  0  0  0  0  0  0  0  0
  181.9550   20.1370   45.5360 C   0  0  0  0  0  0  0  0  0  0  0  0
  181.6190   18.8600   45.3360 N   0  0  0  0  0  0  0  0  0  0  0  0
  180.3560   18.5240   45.6520 C   0  0  0  0  0  0  0  0  0  0  0  0
  180.0510   17.1580   45.4550 N   0  0  0  0  0  0  0  0  0  0  0  0
  180.3990   16.3800   44.3190 C   0  0  0  0  0  0  0  0  0  0  0  0
  180.4240   14.9780   44.3370 C   0  0  0  0  0  0  0  0  0  0  0  0
  180.8180   14.2600   43.2040 C   0  0  0  0  0  0  0  0  0  0  0  0
  181.2090   14.9350   42.0520 C   0  0  0  0  0  0  0  0  0  0  0  0
  181.2160   16.3250   42.0410 C   0  0  0  0  0  0  0  0  0  0  0  0
  181.6170   16.9480   40.8970 O   0  0  0  0  0  0  0  0  0  0  0  0
  180.8270   17.0500   43.1650 C   0  0  0  0  0  0  0  0  0  0  0  0
  179.4080   19.4570   46.1160 C   0  0  0  0  0  0  0  0  0  0  0  0
  178.0430   19.1810   46.4030 C   0  0  0  0  0  0  0  0  0  0  0  0
  177.1790   20.1680   46.8850 C   0  0  0  0  0  0  0  0  0  0  0  0
  175.8770   19.9300   47.2310 O   0  0  0  0  0  0  0  0  0  0  0  0
  175.6370   19.1790   48.4170 C   0  0  0  0  0  0  0  0  0  0  0  0
  177.8801   23.9884   48.6884 H   0  0  0  0  0  0  0  0  0  0  0  0
  178.7202   23.6377   47.1399 H   0  0  0  0  0  0  0  0  0  0  0  0
  177.1978   24.5910   47.1399 H   0  0  0  0  0  0  0  0  0  0  0  0
  179.4041   22.7541   46.8926 H   0  0  0  0  0  0  0  0  0  0  0  0
  182.9884   20.4238   45.2915 H   0  0  0  0  0  0  0  0  0  0  0  0
  179.5510   16.7040   46.1710 H   0  0  0  0  0  0  0  0  0  0  0  0
  180.1312   14.4388   45.2500 H   0  0  0  0  0  0  0  0  0  0  0  0
  180.8189   13.1602   43.2234 H   0  0  0  0  0  0  0  0  0  0  0  0
  181.5105   14.3726   41.1560 H   0  0  0  0  0  0  0  0  0  0  0  0
  181.0710   17.5990   40.5020 H   0  0  0  0  0  0  0  0  0  0  0  0
  180.8558   18.1495   43.1468 H   0  0  0  0  0  0  0  0  0  0  0  0
  177.6569   18.1637   46.2414 H   0  0  0  0  0  0  0  0  0  0  0  0
  175.8381   19.8083   49.2965 H   0  0  0  0  0  0  0  0  0  0  0  0
  174.5882   18.8477   48.4353 H   0  0  0  0  0  0  0  0  0  0  0  0
  176.2993   18.3009   48.4353 H   0  0  0  0  0  0  0  0  0  0  0  0
  1  2  1  0
  2  3  1  0
  3  4  2  0
  4  5  1  0
  5  6  2  0
  6  7  1  0
  7  8  2  0
  8  9  1  0
  9 10  1  0
 10 11  1  0
 11 12  2  0
 12 13  1  0
 13 14  2  0
 14 15  1  0
 15 16  1  0
 15 17  2  0
  9 18  2  0
 18 19  1  0
 19 20  2  0
 20 21  1  0
 21 22  1  0
 20  3  1  0
 18  5  1  0
 17 11  1  0
  1 23  1  0
  1 24  1  0
  1 25  1  0
  4 26  1  0
  7 27  1  0
 10 28  1  0
 12 29  1  0
 13 30  1  0
 14 31  1  0
 16 32  1  0
 17 33  1  0
 19 34  1  0
 22 35  1  0
 22 36  1  0
 22 37  1  0
M  END
>  <meeko>  (1) 
{"is_sidechain": [false], "free_energy": -7.58, "intermolecular_energy": -9.574, "internal_energy": -0.095}

$$$$
DTQ_out
     RDKit          3D

 37 39  0  0  0  0  0  0  0  0999 V2000
  175.9700   20.3440   50.0040 C   0  0  0  0  0  0  0  0  0  0  0  0
  176.3960   21.3000   49.0380 O   0  0  0  0  0  0  0  0  0  0  0  0
  177.3300   20.8650   48.1320 C   0  0  0  0  0  0  0  0  0  0  0  0
  178.6520   21.1100   48.5300 C   0  0  0  0  0  0  0  0  0  0  0  0
  179.7420   20.7380   47.7590 C   0  0  0  0  0  0  0  0  0  0  0  0
  180.9710   21.0360   48.1980 N   0  0  0  0  0  0  0  0  0  0  0  0
  181.9950   20.6850   47.4130 C   0  0  0  0  0  0  0  0  0  0  0  0
  181.9090   20.0460   46.2430 N   0  0  0  0  0  0  0  0  0  0  0  0
  180.6700   19.7240   45.8350 C   0  0  0  0  0  0  0  0  0  0  0  0
  180.6260   19.0230   44.6080 N   0  0  0  0  0  0  0  0  0  0  0  0
  180.7230   17.6150   44.4460 C   0  0  0  0  0  0  0  0  0  0  0  0
  179.9530   16.7090   45.1900 C   0  0  0  0  0  0  0  0  0  0  0  0
  180.1190   15.3320   45.0230 C   0  0  0  0  0  0  0  0  0  0  0  0
  181.0670   14.8470   44.1270 C   0  0  0  0  0  0  0  0  0  0  0  0
  181.8530   15.7410   43.4120 C   0  0  0  0  0  0  0  0  0  0  0  0
  182.7790   15.2250   42.5540 O   0  0  0  0  0  0  0  0  0  0  0  0
  181.6980   17.1160   43.5720 C   0  0  0  0  0  0  0  0  0  0  0  0
  179.5100   20.0750   46.5520 C   0  0  0  0  0  0  0  0  0  0  0  0
  178.1720   19.8230   46.1430 C   0  0  0  0  0  0  0  0  0  0  0  0
  177.0800   20.1870   46.9360 C   0  0  0  0  0  0  0  0  0  0  0  0
  175.7810   19.9090   46.6070 O   0  0  0  0  0  0  0  0  0  0  0  0
  175.3280   18.5710   46.7890 C   0  0  0  0  0  0  0  0  0  0  0  0
  176.1466   20.7404   51.0148 H   0  0  0  0  0  0  0  0  0  0  0  0
  174.8968   20.1422   49.8716 H   0  0  0  0  0  0  0  0  0  0  0  0
  176.5376   19.4111   49.8716 H   0  0  0  0  0  0  0  0  0  0  0  0
  178.8307   21.6164   49.4900 H   0  0  0  0  0  0  0  0  0  0  0  0
  183.0040   20.9473   47.7639 H   0  0  0  0  0  0  0  0  0  0  0  0
  180.5180   19.5600   43.7900 H   0  0  0  0  0  0  0  0  0  0  0  0
  179.2124   17.0858   45.9108 H   0  0  0  0  0  0  0  0  0  0  0  0
  179.4995   14.6301   45.6005 H   0  0  0  0  0  0  0  0  0  0  0  0
  181.1928   13.7633   43.9862 H   0  0  0  0  0  0  0  0  0  0  0  0
  183.2690   14.4640   42.7960 H   0  0  0  0  0  0  0  0  0  0  0  0
  182.3414   17.8105   43.0119 H   0  0  0  0  0  0  0  0  0  0  0  0
  177.9913   19.3286   45.1771 H   0  0  0  0  0  0  0  0  0  0  0  0
  175.2539   18.3521   47.8644 H   0  0  0  0  0  0  0  0  0  0  0  0
  174.3394   18.4518   46.3216 H   0  0  0  0  0  0  0  0  0  0  0  0
  176.0408   17.8758   46.3216 H   0  0  0  0  0  0  0  0  0  0  0  0
  1  2  1  0
  2  3  1  0
  3  4  2  0
  4  5  1  0
  5  6  2  0
  6  7  1  0
  7  8  2  0
  8  9  1  0
  9 10  1  0
 10 11  1  0
 11 12  2  0
 12 13  1  0
 13 14  2  0
 14 15  1  0
 15 16  1  0
 15 17  2  0
  9 18  2  0
 18 19  1  0
 19 20  2  0
 20 21  1  0
 21 22  1  0
 20  3  1  0
 18  5  1  0
 17 11  1  0
  1 23  1  0
  1 24  1  0
  1 25  1  0
  4 26  1  0
  7 27  1  0
 10 28  1  0
 12 29  1  0
 13 30  1  0
 14 31  1  0
 16 32  1  0
 17 33  1  0
 19 34  1  0
 22 35  1  0
 22 36  1  0
 22 37  1  0
M  END
>  <meeko>  (2) 
{"is_sidechain": [false], "free_energy": -7.526, "intermolecular_energy": -8.923, "internal_energy": -0.678}

$$$$
DTQ_out
     RDKit          3D

 37 39  0  0  0  0  0  0  0  0999 V2000
  180.9920   19.5500   45.3770 C   0  0  0  0  0  0  0  0  0  0  0  0
  180.6100   20.8450   45.8290 O   0  0  0  0  0  0  0  0  0  0  0  0
  179.4600   20.9090   46.5740 C   0  0  0  0  0  0  0  0  0  0  0  0
  178.4840   19.9840   46.1770 C   0  0  0  0  0  0  0  0  0  0  0  0
  177.2550   19.8810   46.8090 C   0  0  0  0  0  0  0  0  0  0  0  0
  176.3670   18.9920   46.3490 N   0  0  0  0  0  0  0  0  0  0  0  0
  175.1840   18.9420   46.9680 C   0  0  0  0  0  0  0  0  0  0  0  0
  174.8110   19.6800   48.0170 N   0  0  0  0  0  0  0  0  0  0  0  0
  175.7270   20.5440   48.4890 C   0  0  0  0  0  0  0  0  0  0  0  0
  175.3030   21.2830   49.6170 N   0  0  0  0  0  0  0  0  0  0  0  0
  174.6790   22.5580   49.5930 C   0  0  0  0  0  0  0  0  0  0  0  0
  175.3320   23.7320   49.9940 C   0  0  0  0  0  0  0  0  0  0  0  0
  174.6570   24.9560   49.9940 C   0  0  0  0  0  0  0  0  0  0  0  0
  173.3200   25.0150   49.6120 C   0  0  0  0  0  0  0  0  0  0  0  0
  172.6600   23.8490   49.2450 C   0  0  0  0  0  0  0  0  0  0  0  0
  171.3480   23.9480   48.8900 O   0  0  0  0  0  0  0  0  0  0  0  0
  173.3230   22.6240   49.2440 C   0  0  0  0  0  0  0  0  0  0  0  0
  176.9930   20.7170   47.8970 C   0  0  0  0  0  0  0  0  0  0  0  0
  177.9780   21.6570   48.3050 C   0  0  0  0  0  0  0  0  0  0  0  0
  179.2210   21.7410   47.6710 C   0  0  0  0  0  0  0  0  0  0  0  0
  180.2180   22.5880   48.0720 O   0  0  0  0  0  0  0  0  0  0  0  0
  179.9550   23.9870   48.0220 C   0  0  0  0  0  0  0  0  0  0  0  0
  181.1835   18.9007   46.2440 H   0  0  0  0  0  0  0  0  0  0  0  0
  180.1824   19.1203   44.7689 H   0  0  0  0  0  0  0  0  0  0  0  0
  181.9053   19.6285   44.7689 H   0  0  0  0  0  0  0  0  0  0  0  0
  178.7021   19.3146   45.3318 H   0  0  0  0  0  0  0  0  0  0  0  0
  174.4473   18.2250   46.5766 H   0  0  0  0  0  0  0  0  0  0  0  0
  175.4530   20.8760   50.5000 H   0  0  0  0  0  0  0  0  0  0  0  0
  176.3844   23.6895   50.3113 H   0  0  0  0  0  0  0  0  0  0  0  0
  175.1831   25.8736   50.2962 H   0  0  0  0  0  0  0  0  0  0  0  0
  172.7894   25.9785   49.6008 H   0  0  0  0  0  0  0  0  0  0  0  0
  170.7140   24.2410   49.5160 H   0  0  0  0  0  0  0  0  0  0  0  0
  172.7816   21.7069   48.9689 H   0  0  0  0  0  0  0  0  0  0  0  0
  177.7564   22.3361   49.1415 H   0  0  0  0  0  0  0  0  0  0  0  0
  179.8806   24.3829   49.0456 H   0  0  0  0  0  0  0  0  0  0  0  0
  180.7733   24.4952   47.4909 H   0  0  0  0  0  0  0  0  0  0  0  0
  179.0080   24.1633   47.4909 H   0  0  0  0  0  0  0  0  0  0  0  0
  1  2  1  0
  2  3  1  0
  3  4  2  0
  4  5  1  0
  5  6  2  0
  6  7  1  0
  7  8  2  0
  8  9  1  0
  9 10  1  0
 10 11  1  0
 11 12  2  0
 12 13  1  0
 13 14  2  0
 14 15  1  0
 15 16  1  0
 15 17  2  0
  9 18  2  0
 18 19  1  0
 19 20  2  0
 20 21  1  0
 21 22  1  0
 20  3  1  0
 18  5  1  0
 17 11  1  0
  1 23  1  0
  1 24  1  0
  1 25  1  0
  4 26  1  0
  7 27  1  0
 10 28  1  0
 12 29  1  0
 13 30  1  0
 14 31  1  0
 16 32  1  0
 17 33  1  0
 19 34  1  0
 22 35  1  0
 22 36  1  0
 22 37  1  0
M  END
>  <meeko>  (3) 
{"is_sidechain": [false], "free_energy": -7.27, "intermolecular_energy": -8.618, "internal_energy": -0.659}

$$$$
DTQ_out
     RDKit          3D

 37 39  0  0  0  0  0  0  0  0999 V2000
  175.7040   23.6640   53.5460 C   0  0  0  0  0  0  0  0  0  0  0  0
  176.6230   22.6060   53.2950 O   0  0  0  0  0  0  0  0  0  0  0  0
  176.9380   22.3810   51.9800 C   0  0  0  0  0  0  0  0  0  0  0  0
  176.1580   21.3820   51.3800 C   0  0  0  0  0  0  0  0  0  0  0  0
  176.3130   21.0120   50.0530 C   0  0  0  0  0  0  0  0  0  0  0  0
  175.5480   20.0280   49.5670 N   0  0  0  0  0  0  0  0  0  0  0  0
  175.7460   19.6820   48.2900 C   0  0  0  0  0  0  0  0  0  0  0  0
  176.6210   20.2390   47.4490 N   0  0  0  0  0  0  0  0  0  0  0  0
  177.3570   21.2500   47.9440 C   0  0  0  0  0  0  0  0  0  0  0  0
  178.2470   21.8310   47.0130 N   0  0  0  0  0  0  0  0  0  0  0  0
  179.4740   21.2700   46.5670 C   0  0  0  0  0  0  0  0  0  0  0  0
  179.5470   20.3260   45.5330 C   0  0  0  0  0  0  0  0  0  0  0  0
  180.7760   19.7720   45.1630 C   0  0  0  0  0  0  0  0  0  0  0  0
  181.9380   20.1410   45.8350 C   0  0  0  0  0  0  0  0  0  0  0  0
  181.8640   21.0520   46.8810 C   0  0  0  0  0  0  0  0  0  0  0  0
  183.0230   21.3770   47.5210 O   0  0  0  0  0  0  0  0  0  0  0  0
  180.6440   21.6080   47.2590 C   0  0  0  0  0  0  0  0  0  0  0  0
  177.2690   21.6780   49.2820 C   0  0  0  0  0  0  0  0  0  0  0  0
  178.0630   22.6920   49.8840 C   0  0  0  0  0  0  0  0  0  0  0  0
  177.8870   23.0700   51.2180 C   0  0  0  0  0  0  0  0  0  0  0  0
  178.5880   24.0810   51.8160 O   0  0  0  0  0  0  0  0  0  0  0  0
  178.4170   25.3970   51.3000 C   0  0  0  0  0  0  0  0  0  0  0  0
  175.5872   23.7984   54.6315 H   0  0  0  0  0  0  0  0  0  0  0  0
  176.0854   24.5945   53.1002 H   0  0  0  0  0  0  0  0  0  0  0  0
  174.7293   23.4165   53.1002 H   0  0  0  0  0  0  0  0  0  0  0  0
  175.3939   20.8724   51.9854 H   0  0  0  0  0  0  0  0  0  0  0  0
  175.1296   18.8608   47.8954 H   0  0  0  0  0  0  0  0  0  0  0  0
  177.9940   22.7040   46.6370 H   0  0  0  0  0  0  0  0  0  0  0  0
  178.6300   20.0189   45.0088 H   0  0  0  0  0  0  0  0  0  0  0  0
  180.8249   19.0438   44.3400 H   0  0  0  0  0  0  0  0  0  0  0  0
  182.9079   19.7142   45.5398 H   0  0  0  0  0  0  0  0  0  0  0  0
  183.1350   22.2350   47.8800 H   0  0  0  0  0  0  0  0  0  0  0  0
  180.5994   22.3133   48.1019 H   0  0  0  0  0  0  0  0  0  0  0  0
  178.8369   23.1927   49.2836 H   0  0  0  0  0  0  0  0  0  0  0  0
  178.3245   26.1086   52.1337 H   0  0  0  0  0  0  0  0  0  0  0  0
  179.2878   25.6653   50.6838 H   0  0  0  0  0  0  0  0  0  0  0  0
  177.5065   25.4338   50.6838 H   0  0  0  0  0  0  0  0  0  0  0  0
  1  2  1  0
  2  3  1  0
  3  4  2  0
  4  5  1  0
  5  6  2  0
  6  7  1  0
  7  8  2  0
  8  9  1  0
  9 10  1  0
 10 11  1  0
 11 12  2  0
 12 13  1  0
 13 14  2  0
 14 15  1  0
 15 16  1  0
 15 17  2  0
  9 18  2  0
 18 19  1  0
 19 20  2  0
 20 21  1  0
 21 22  1  0
 20  3  1  0
 18  5  1  0
 17 11  1  0
  1 23  1  0
  1 24  1  0
  1 25  1  0
  4 26  1  0
  7 27  1  0
 10 28  1  0
 12 29  1  0
 13 30  1  0
 14 31  1  0
 16 32  1  0
 17 33  1  0
 19 34  1  0
 22 35  1  0
 22 36  1  0
 22 37  1  0
M  END
>  <meeko>  (4) 
{"is_sidechain": [false], "free_energy": -7.127, "intermolecular_energy": -8.453, "internal_energy": -0.644}

$$$$
DTQ_out
     RDKit          3D

 37 39  0  0  0  0  0  0  0  0999 V2000
  181.9390   24.5250   52.3630 C   0  0  0  0  0  0  0  0  0  0  0  0
  181.2430   23.2840   52.3010 O   0  0  0  0  0  0  0  0  0  0  0  0
  180.7350   22.9380   51.0750 C   0  0  0  0  0  0  0  0  0  0  0  0
  181.6870   22.3750   50.2130 C   0  0  0  0  0  0  0  0  0  0  0  0
  181.3730   21.9480   48.9320 C   0  0  0  0  0  0  0  0  0  0  0  0
  182.3470   21.4490   48.1640 N   0  0  0  0  0  0  0  0  0  0  0  0
  182.0090   21.0750   46.9250 C   0  0  0  0  0  0  0  0  0  0  0  0
  180.7870   21.1320   46.3900 N   0  0  0  0  0  0  0  0  0  0  0  0
  179.8130   21.6040   47.1880 C   0  0  0  0  0  0  0  0  0  0  0  0
  178.5310   21.6190   46.5930 N   0  0  0  0  0  0  0  0  0  0  0  0
  177.5070   20.6540   46.7890 C   0  0  0  0  0  0  0  0  0  0  0  0
  177.5530   19.3710   46.2240 C   0  0  0  0  0  0  0  0  0  0  0  0
  176.4980   18.4740   46.4110 C   0  0  0  0  0  0  0  0  0  0  0  0
  175.3790   18.8570   47.1460 C   0  0  0  0  0  0  0  0  0  0  0  0
  175.3170   20.1380   47.6810 C   0  0  0  0  0  0  0  0  0  0  0  0
  174.1990   20.4770   48.3830 O   0  0  0  0  0  0  0  0  0  0  0  0
  176.3620   21.0400   47.4980 C   0  0  0  0  0  0  0  0  0  0  0  0
  180.0510   22.0670   48.4960 C   0  0  0  0  0  0  0  0  0  0  0  0
  179.0800   22.6370   49.3640 C   0  0  0  0  0  0  0  0  0  0  0  0
  179.4040   23.0480   50.6610 C   0  0  0  0  0  0  0  0  0  0  0  0
  178.4880   23.5440   51.5480 O   0  0  0  0  0  0  0  0  0  0  0  0
  177.3080   22.7800   51.7730 C   0  0  0  0  0  0  0  0  0  0  0  0
  182.0961   24.8051   53.4151 H   0  0  0  0  0  0  0  0  0  0  0  0
  182.9126   24.4249   51.8609 H   0  0  0  0  0  0  0  0  0  0  0  0
  181.3459   25.3035   51.8609 H   0  0  0  0  0  0  0  0  0  0  0  0
  182.7230   22.2680   50.5669 H   0  0  0  0  0  0  0  0  0  0  0  0
  182.8143   20.6833   46.2862 H   0  0  0  0  0  0  0  0  0  0  0  0
  178.3280   22.3680   45.9880 H   0  0  0  0  0  0  0  0  0  0  0  0
  178.4270   19.0684   45.6286 H   0  0  0  0  0  0  0  0  0  0  0  0
  176.5515   17.4645   45.9773 H   0  0  0  0  0  0  0  0  0  0  0  0
  174.5502   18.1507   47.3020 H   0  0  0  0  0  0  0  0  0  0  0  0
  173.7260   19.8210   48.8570 H   0  0  0  0  0  0  0  0  0  0  0  0
  176.2884   22.0570   47.9107 H   0  0  0  0  0  0  0  0  0  0  0  0
  178.0469   22.7579   49.0062 H   0  0  0  0  0  0  0  0  0  0  0  0
  177.1417   22.6723   52.8550 H   0  0  0  0  0  0  0  0  0  0  0  0
  176.4472   23.2926   51.3189 H   0  0  0  0  0  0  0  0  0  0  0  0
  177.4234   21.7848   51.3189 H   0  0  0  0  0  0  0  0  0  0  0  0
  1  2  1  0
  2  3  1  0
  3  4  2  0
  4  5  1  0
  5  6  2  0
  6  7  1  0
  7  8  2  0
  8  9  1  0
  9 10  1  0
 10 11  1  0
 11 12  2  0
 12 13  1  0
 13 14  2  0
 14 15  1  0
 15 16  1  0
 15 17  2  0
  9 18  2  0
 18 19  1  0
 19 20  2  0
 20 21  1  0
 21 22  1  0
 20  3  1  0
 18  5  1  0
 17 11  1  0
  1 23  1  0
  1 24  1  0
  1 25  1  0
  4 26  1  0
  7 27  1  0
 10 28  1  0
 12 29  1  0
 13 30  1  0
 14 31  1  0
 16 32  1  0
 17 33  1  0
 19 34  1  0
 22 35  1  0
 22 36  1  0
 22 37  1  0
M  END
>  <meeko>  (5) 
{"is_sidechain": [false], "free_energy": -7.098, "intermolecular_energy": -8.388, "internal_energy": -0.672}

$$$$
DTQ_out
     RDKit          3D

 37 39  0  0  0  0  0  0  0  0999 V2000
  172.6520   23.4580   49.7360 C   0  0  0  0  0  0  0  0  0  0  0  0
  173.8880   22.9850   50.2620 O   0  0  0  0  0  0  0  0  0  0  0  0
  174.7710   22.4640   49.3510 C   0  0  0  0  0  0  0  0  0  0  0  0
  174.4370   21.1690   48.9260 C   0  0  0  0  0  0  0  0  0  0  0  0
  175.1960   20.4710   47.9990 C   0  0  0  0  0  0  0  0  0  0  0  0
  174.8250   19.2280   47.6710 N   0  0  0  0  0  0  0  0  0  0  0  0
  175.5980   18.5780   46.7950 C   0  0  0  0  0  0  0  0  0  0  0  0
  176.6930   19.0590   46.2000 N   0  0  0  0  0  0  0  0  0  0  0  0
  177.0310   20.3210   46.5150 C   0  0  0  0  0  0  0  0  0  0  0  0
  178.1780   20.8010   45.8420 N   0  0  0  0  0  0  0  0  0  0  0  0
  179.5190   20.6930   46.2950 C   0  0  0  0  0  0  0  0  0  0  0  0
  180.5940   20.4250   45.4340 C   0  0  0  0  0  0  0  0  0  0  0  0
  181.8890   20.2840   45.9370 C   0  0  0  0  0  0  0  0  0  0  0  0
  182.1210   20.3900   47.3060 C   0  0  0  0  0  0  0  0  0  0  0  0
  181.0550   20.6240   48.1650 C   0  0  0  0  0  0  0  0  0  0  0  0
  181.3220   20.7090   49.4990 O   0  0  0  0  0  0  0  0  0  0  0  0
  179.7590   20.7640   47.6740 C   0  0  0  0  0  0  0  0  0  0  0  0
  176.3220   21.0930   47.4550 C   0  0  0  0  0  0  0  0  0  0  0  0
  176.6650   22.4060   47.8800 C   0  0  0  0  0  0  0  0  0  0  0  0
  175.8840   23.1080   48.8020 C   0  0  0  0  0  0  0  0  0  0  0  0
  176.1450   24.3930   49.1910 O   0  0  0  0  0  0  0  0  0  0  0  0
  176.9650   24.5800   50.3410 C   0  0  0  0  0  0  0  0  0  0  0  0
  171.9760   23.7167   50.5643 H   0  0  0  0  0  0  0  0  0  0  0  0
  172.8336   24.3502   49.1187 H   0  0  0  0  0  0  0  0  0  0  0  0
  172.1916   22.6725   49.1187 H   0  0  0  0  0  0  0  0  0  0  0  0
  173.5394   20.6897   49.3439 H   0  0  0  0  0  0  0  0  0  0  0  0
  175.3043   17.5491   46.5399 H   0  0  0  0  0  0  0  0  0  0  0  0
  178.0330   21.2510   44.9780 H   0  0  0  0  0  0  0  0  0  0  0  0
  180.4150   20.3251   44.3533 H   0  0  0  0  0  0  0  0  0  0  0  0
  182.7267   20.0890   45.2512 H   0  0  0  0  0  0  0  0  0  0  0  0
  183.1414   20.2891   47.7043 H   0  0  0  0  0  0  0  0  0  0  0  0
  181.2890   21.5390   49.9320 H   0  0  0  0  0  0  0  0  0  0  0  0
  178.9230   20.9305   48.3693 H   0  0  0  0  0  0  0  0  0  0  0  0
  177.5691   22.8817   47.4722 H   0  0  0  0  0  0  0  0  0  0  0  0
  176.3599   24.4420   51.2492 H   0  0  0  0  0  0  0  0  0  0  0  0
  177.7838   23.8455   50.3309 H   0  0  0  0  0  0  0  0  0  0  0  0
  177.3844   25.5969   50.3309 H   0  0  0  0  0  0  0  0  0  0  0  0
  1  2  1  0
  2  3  1  0
  3  4  2  0
  4  5  1  0
  5  6  2  0
  6  7  1  0
  7  8  2  0
  8  9  1  0
  9 10  1  0
 10 11  1  0
 11 12  2  0
 12 13  1  0
 13 14  2  0
 14 15  1  0
 15 16  1  0
 15 17  2  0
  9 18  2  0
 18 19  1  0
 19 20  2  0
 20 21  1  0
 21 22  1  0
 20  3  1  0
 18  5  1  0
 17 11  1  0
  1 23  1  0
  1 24  1  0
  1 25  1  0
  4 26  1  0
  7 27  1  0
 10 28  1  0
 12 29  1  0
 13 30  1  0
 14 31  1  0
 16 32  1  0
 17 33  1  0
 19 34  1  0
 22 35  1  0
 22 36  1  0
 22 37  1  0
M  END
>  <meeko>  (6) 
{"is_sidechain": [false], "free_energy": -7.087, "intermolecular_energy": -8.525, "internal_energy": -0.52}

$$$$
DTQ_out
     RDKit          3D

 37 39  0  0  0  0  0  0  0  0999 V2000
  181.0180   19.2300   45.3660 C   0  0  0  0  0  0  0  0  0  0  0  0
  180.6900   20.5520   45.7810 O   0  0  0  0  0  0  0  0  0  0  0  0
  179.4190   20.7340   46.2640 C   0  0  0  0  0  0  0  0  0  0  0  0
  178.5950   19.6100   46.1100 C   0  0  0  0  0  0  0  0  0  0  0  0
  177.2780   19.5870   46.5420 C   0  0  0  0  0  0  0  0  0  0  0  0
  176.5510   18.4850   46.3290 N   0  0  0  0  0  0  0  0  0  0  0  0
  175.2770   18.5120   46.7360 C   0  0  0  0  0  0  0  0  0  0  0  0
  174.6680   19.5280   47.3550 N   0  0  0  0  0  0  0  0  0  0  0  0
  175.4240   20.6140   47.5920 C   0  0  0  0  0  0  0  0  0  0  0  0
  174.7500   21.6530   48.2740 N   0  0  0  0  0  0  0  0  0  0  0  0
  175.2720   22.4240   49.3460 C   0  0  0  0  0  0  0  0  0  0  0  0
  175.5000   23.8050   49.2500 C   0  0  0  0  0  0  0  0  0  0  0  0
  176.0570   24.5090   50.3200 C   0  0  0  0  0  0  0  0  0  0  0  0
  176.4090   23.8390   51.4890 C   0  0  0  0  0  0  0  0  0  0  0  0
  176.2130   22.4660   51.5760 C   0  0  0  0  0  0  0  0  0  0  0  0
  176.5830   21.8460   52.7330 O   0  0  0  0  0  0  0  0  0  0  0  0
  175.6610   21.7540   50.5140 C   0  0  0  0  0  0  0  0  0  0  0  0
  176.7640   20.7220   47.1750 C   0  0  0  0  0  0  0  0  0  0  0  0
  177.5950   21.8650   47.3350 C   0  0  0  0  0  0  0  0  0  0  0  0
  178.9260   21.8720   46.9110 C   0  0  0  0  0  0  0  0  0  0  0  0
  179.7750   22.9280   47.1010 O   0  0  0  0  0  0  0  0  0  0  0  0
  179.3140   24.0060   47.9080 C   0  0  0  0  0  0  0  0  0  0  0  0
  181.1753   18.5962   46.2512 H   0  0  0  0  0  0  0  0  0  0  0  0
  180.1944   18.8200   44.7631 H   0  0  0  0  0  0  0  0  0  0  0  0
  181.9378   19.2525   44.7631 H   0  0  0  0  0  0  0  0  0  0  0  0
  179.0094   18.7123   45.6280 H   0  0  0  0  0  0  0  0  0  0  0  0
  174.6734   17.6129   46.5429 H   0  0  0  0  0  0  0  0  0  0  0  0
  173.8350   21.8620   47.9780 H   0  0  0  0  0  0  0  0  0  0  0  0
  175.2378   24.3379   48.3241 H   0  0  0  0  0  0  0  0  0  0  0  0
  176.2179   25.5942   50.2392 H   0  0  0  0  0  0  0  0  0  0  0  0
  176.8389   24.3923   52.3370 H   0  0  0  0  0  0  0  0  0  0  0  0
  177.4720   21.8930   53.0260 H   0  0  0  0  0  0  0  0  0  0  0  0
  175.5301   20.6646   50.5919 H   0  0  0  0  0  0  0  0  0  0  0  0
  177.1784   22.7679   47.8053 H   0  0  0  0  0  0  0  0  0  0  0  0
  179.4264   23.7431   48.9702 H   0  0  0  0  0  0  0  0  0  0  0  0
  179.9054   24.9072   47.6888 H   0  0  0  0  0  0  0  0  0  0  0  0
  178.2538   24.2009   47.6888 H   0  0  0  0  0  0  0  0  0  0  0  0
  1  2  1  0
  2  3  1  0
  3  4  2  0
  4  5  1  0
  5  6  2  0
  6  7  1  0
  7  8  2  0
  8  9  1  0
  9 10  1  0
 10 11  1  0
 11 12  2  0
 12 13  1  0
 13 14  2  0
 14 15  1  0
 15 16  1  0
 15 17  2  0
  9 18  2  0
 18 19  1  0
 19 20  2  0
 20 21  1  0
 21 22  1  0
 20  3  1  0
 18  5  1  0
 17 11  1  0
  1 23  1  0
  1 24  1  0
  1 25  1  0
  4 26  1  0
  7 27  1  0
 10 28  1  0
 12 29  1  0
 13 30  1  0
 14 31  1  0
 16 32  1  0
 17 33  1  0
 19 34  1  0
 22 35  1  0
 22 36  1  0
 22 37  1  0
M  END
>  <meeko>  (7) 
{"is_sidechain": [false], "free_energy": -7.077, "intermolecular_energy": -8.666, "internal_energy": -0.368}

$$$$
DTQ_out
     RDKit          3D

 37 39  0  0  0  0  0  0  0  0999 V2000
  180.7720   18.7430   45.1600 C   0  0  0  0  0  0  0  0  0  0  0  0
  179.6070   18.6160   45.9690 O   0  0  0  0  0  0  0  0  0  0  0  0
  179.1220   19.7780   46.5130 C   0  0  0  0  0  0  0  0  0  0  0  0
  180.1240   20.6970   46.8560 C   0  0  0  0  0  0  0  0  0  0  0  0
  179.8400   21.9360   47.4090 C   0  0  0  0  0  0  0  0  0  0  0  0
  180.8570   22.7420   47.7360 N   0  0  0  0  0  0  0  0  0  0  0  0
  180.5430   23.9170   48.2920 C   0  0  0  0  0  0  0  0  0  0  0  0
  179.3110   24.3710   48.5330 N   0  0  0  0  0  0  0  0  0  0  0  0
  178.3000   23.5640   48.1670 C   0  0  0  0  0  0  0  0  0  0  0  0
  177.0130   24.0950   48.4120 N   0  0  0  0  0  0  0  0  0  0  0  0
  176.3020   24.0280   49.6390 C   0  0  0  0  0  0  0  0  0  0  0  0
  175.1840   24.8290   49.9150 C   0  0  0  0  0  0  0  0  0  0  0  0
  174.5460   24.7560   51.1560 C   0  0  0  0  0  0  0  0  0  0  0  0
  175.0300   23.8980   52.1390 C   0  0  0  0  0  0  0  0  0  0  0  0
  176.1560   23.1260   51.8810 C   0  0  0  0  0  0  0  0  0  0  0  0
  176.6060   22.3080   52.8750 O   0  0  0  0  0  0  0  0  0  0  0  0
  176.8000   23.1930   50.6480 C   0  0  0  0  0  0  0  0  0  0  0  0
  178.5030   22.2860   47.6110 C   0  0  0  0  0  0  0  0  0  0  0  0
  177.4820   21.3590   47.2640 C   0  0  0  0  0  0  0  0  0  0  0  0
  177.7780   20.1200   46.6910 C   0  0  0  0  0  0  0  0  0  0  0  0
  176.8230   19.2260   46.2880 O   0  0  0  0  0  0  0  0  0  0  0  0
  175.6440   19.1200   47.0790 C   0  0  0  0  0  0  0  0  0  0  0  0
  181.6577   18.8396   45.8052 H   0  0  0  0  0  0  0  0  0  0  0  0
  180.8765   17.8509   44.5250 H   0  0  0  0  0  0  0  0  0  0  0  0
  180.6818   19.6366   44.5250 H   0  0  0  0  0  0  0  0  0  0  0  0
  181.1750   20.4245   46.6796 H   0  0  0  0  0  0  0  0  0  0  0  0
  181.3795   24.5717   48.5779 H   0  0  0  0  0  0  0  0  0  0  0  0
  176.5700   24.5550   47.6630 H   0  0  0  0  0  0  0  0  0  0  0  0
  174.8062   25.5207   49.1477 H   0  0  0  0  0  0  0  0  0  0  0  0
  173.6605   25.3772   51.3561 H   0  0  0  0  0  0  0  0  0  0  0  0
  174.5245   23.8315   53.1137 H   0  0  0  0  0  0  0  0  0  0  0  0
  176.3270   22.4480   53.7590 H   0  0  0  0  0  0  0  0  0  0  0  0
  177.7013   22.5893   50.4659 H   0  0  0  0  0  0  0  0  0  0  0  0
  176.4312   21.6247   47.4518 H   0  0  0  0  0  0  0  0  0  0  0  0
  175.9142   19.1443   48.1450 H   0  0  0  0  0  0  0  0  0  0  0  0
  174.9730   19.9614   46.8516 H   0  0  0  0  0  0  0  0  0  0  0  0
  175.1338   18.1724   46.8516 H   0  0  0  0  0  0  0  0  0  0  0  0
  1  2  1  0
  2  3  1  0
  3  4  2  0
  4  5  1  0
  5  6  2  0
  6  7  1  0
  7  8  2  0
  8  9  1  0
  9 10  1  0
 10 11  1  0
 11 12  2  0
 12 13  1  0
 13 14  2  0
 14 15  1  0
 15 16  1  0
 15 17  2  0
  9 18  2  0
 18 19  1  0
 19 20  2  0
 20 21  1  0
 21 22  1  0
 20  3  1  0
 18  5  1  0
 17 11  1  0
  1 23  1  0
  1 24  1  0
  1 25  1  0
  4 26  1  0
  7 27  1  0
 10 28  1  0
 12 29  1  0
 13 30  1  0
 14 31  1  0
 16 32  1  0
 17 33  1  0
 19 34  1  0
 22 35  1  0
 22 36  1  0
 22 37  1  0
M  END
>  <meeko>  (8) 
{"is_sidechain": [false], "free_energy": -6.891, "intermolecular_energy": -8.189, "internal_energy": -0.61}

$$$$
DTQ_out
     RDKit          3D

 37 39  0  0  0  0  0  0  0  0999 V2000
  181.6800   20.6580   45.7920 C   0  0  0  0  0  0  0  0  0  0  0  0
  180.2710   20.4560   45.7650 O   0  0  0  0  0  0  0  0  0  0  0  0
  179.5880   20.8260   46.8950 C   0  0  0  0  0  0  0  0  0  0  0  0
  180.3990   21.4250   47.8690 C   0  0  0  0  0  0  0  0  0  0  0  0
  179.8970   21.8790   49.0790 C   0  0  0  0  0  0  0  0  0  0  0  0
  180.7450   22.4120   49.9670 N   0  0  0  0  0  0  0  0  0  0  0  0
  180.2270   22.8130   51.1320 C   0  0  0  0  0  0  0  0  0  0  0  0
  178.9410   22.7520   51.4870 N   0  0  0  0  0  0  0  0  0  0  0  0
  178.0980   22.2460   50.5700 C   0  0  0  0  0  0  0  0  0  0  0  0
  176.7430   22.2260   50.9740 N   0  0  0  0  0  0  0  0  0  0  0  0
  175.7210   23.0960   50.5100 C   0  0  0  0  0  0  0  0  0  0  0  0
  175.8960   24.4830   50.3960 C   0  0  0  0  0  0  0  0  0  0  0  0
  174.8420   25.2990   49.9760 C   0  0  0  0  0  0  0  0  0  0  0  0
  173.6000   24.7410   49.6860 C   0  0  0  0  0  0  0  0  0  0  0  0
  173.4140   23.3720   49.8280 C   0  0  0  0  0  0  0  0  0  0  0  0
  172.1800   22.8670   49.5460 O   0  0  0  0  0  0  0  0  0  0  0  0
  174.4570   22.5490   50.2480 C   0  0  0  0  0  0  0  0  0  0  0  0
  178.5280   21.7520   49.3230 C   0  0  0  0  0  0  0  0  0  0  0  0
  177.6990   21.1450   48.3400 C   0  0  0  0  0  0  0  0  0  0  0  0
  178.2120   20.7070   47.1160 C   0  0  0  0  0  0  0  0  0  0  0  0
  177.4400   20.1740   46.1200 O   0  0  0  0  0  0  0  0  0  0  0  0
  176.3120   19.3950   46.5060 C   0  0  0  0  0  0  0  0  0  0  0  0
  182.0234   20.7072   46.8359 H   0  0  0  0  0  0  0  0  0  0  0  0
  182.1801   19.8224   45.2805 H   0  0  0  0  0  0  0  0  0  0  0  0
  181.9252   21.6005   45.2805 H   0  0  0  0  0  0  0  0  0  0  0  0
  181.4740   21.5391   47.6656 H   0  0  0  0  0  0  0  0  0  0  0  0
  180.9270   23.2336   51.8690 H   0  0  0  0  0  0  0  0  0  0  0  0
  176.4840   21.5470   51.6370 H   0  0  0  0  0  0  0  0  0  0  0  0
  176.8704   24.9319   50.6391 H   0  0  0  0  0  0  0  0  0  0  0  0
  174.9940   26.3837   49.8744 H   0  0  0  0  0  0  0  0  0  0  0  0
  172.7715   25.3801   49.3467 H   0  0  0  0  0  0  0  0  0  0  0  0
  171.6990   23.1890   48.8090 H   0  0  0  0  0  0  0  0  0  0  0  0
  174.2885   21.4693   50.3741 H   0  0  0  0  0  0  0  0  0  0  0  0
  176.6265   21.0169   48.5483 H   0  0  0  0  0  0  0  0  0  0  0  0
  176.2529   19.3542   47.6037 H   0  0  0  0  0  0  0  0  0  0  0  0
  175.3955   19.8536   46.1062 H   0  0  0  0  0  0  0  0  0  0  0  0
  176.4163   18.3755   46.1062 H   0  0  0  0  0  0  0  0  0  0  0  0
  1  2  1  0
  2  3  1  0
  3  4  2  0
  4  5  1  0
  5  6  2  0
  6  7  1  0
  7  8  2  0
  8  9  1  0
  9 10  1  0
 10 11  1  0
 11 12  2  0
 12 13  1  0
 13 14  2  0
 14 15  1  0
 15 16  1  0
 15 17  2  0
  9 18  2  0
 18 19  1  0
 19 20  2  0
 20 21  1  0
 21 22  1  0
 20  3  1  0
 18  5  1  0
 17 11  1  0
  1 23  1  0
  1 24  1  0
  1 25  1  0
  4 26  1  0
  7 27  1  0
 10 28  1  0
 12 29  1  0
 13 30  1  0
 14 31  1  0
 16 32  1  0
 17 33  1  0
 19 34  1  0
 22 35  1  0
 22 36  1  0
 22 37  1  0
M  END
>  <meeko>  (9) 
{"is_sidechain": [false], "free_energy": -6.856, "intermolecular_energy": -8.087, "internal_energy": -0.668}

$$$$
