rasagiline_out
     RDKit          3D

 27 28  0  0  0  0  0  0  0  0999 V2000
  177.1930   21.4710   51.4000 C   0  0  0  0  0  0  0  0  0  0  0  0
  176.4110   20.8430   50.7390 C   0  0  0  0  0  0  0  0  0  0  0  0
  175.4570   20.0750   49.9290 C   0  0  0  0  0  0  0  0  0  0  0  0
  174.9320   20.9220   48.8670 N   0  0  0  0  0  0  0  0  0  0  0  0
  175.3670   20.4900   47.5440 C   0  0  2  0  0  0  0  0  0  0  0  0
  175.4840   18.9570   47.3850 C   0  0  0  0  0  0  0  0  0  0  0  0
  176.5460   18.7170   46.3020 C   0  0  0  0  0  0  0  0  0  0  0  0
  177.4460   19.8930   46.5200 C   0  0  0  0  0  0  0  0  0  0  0  0
  178.7460   20.0630   46.0750 C   0  0  0  0  0  0  0  0  0  0  0  0
  179.3920   21.2680   46.3650 C   0  0  0  0  0  0  0  0  0  0  0  0
  178.7320   22.2810   47.0770 C   0  0  0  0  0  0  0  0  0  0  0  0
  177.4160   22.1050   47.5090 C   0  0  0  0  0  0  0  0  0  0  0  0
  176.7830   20.9010   47.2330 C   0  0  0  0  0  0  0  0  0  0  0  0
  177.9091   22.0461   52.0053 H   0  0  0  0  0  0  0  0  0  0  0  0
  175.9668   19.2061   49.4872 H   0  0  0  0  0  0  0  0  0  0  0  0
  174.6295   19.7290   50.5658 H   0  0  0  0  0  0  0  0  0  0  0  0
  175.2540   21.8770   49.0220 H   0  0  0  0  0  0  0  0  0  0  0  0
  173.9140   20.8620   48.8950 H   0  0  0  0  0  0  0  0  0  0  0  0
  174.5975   20.9437   46.9022 H   0  0  0  0  0  0  0  0  0  0  0  0
  175.7974   18.4982   48.3344 H   0  0  0  0  0  0  0  0  0  0  0  0
  174.5191   18.5087   47.1057 H   0  0  0  0  0  0  0  0  0  0  0  0
  177.0771   17.7668   46.4604 H   0  0  0  0  0  0  0  0  0  0  0  0
  176.1433   18.6368   45.2815 H   0  0  0  0  0  0  0  0  0  0  0  0
  179.2569   19.2707   45.5082 H   0  0  0  0  0  0  0  0  0  0  0  0
  180.4286   21.4238   46.0316 H   0  0  0  0  0  0  0  0  0  0  0  0
  179.2563   23.2227   47.2969 H   0  0  0  0  0  0  0  0  0  0  0  0
  176.8924   22.9029   48.0560 H   0  0  0  0  0  0  0  0  0  0  0  0
  1  2  3  0
  2  3  1  0
  3  4  1  0
  4  5  1  0
  5  6  1  0
  6  7  1  0
  7  8  1  0
  8  9  2  0
  9 10  1  0
 10 11  2  0
 11 12  1  0
 12 13  2  0
 13  5  1  0
 13  8  1  0
  1 14  1  0
  3 15  1  0
  3 16  1  0
  4 17  1  0
  4 18  1  0
  5 19  1  6
  6 20  1  0
  6 21  1  0
  7 22  1  0
  7 23  1  0
  9 24  1  0
 10 25  1  0
 11 26  1  0
 12 27  1  0
M  CHG  1   4   1
M  END
>  <meeko>  (1) 
{"is_sidechain": [false], "free_energy": -5.935, "intermolecular_energy": -6.629, "internal_energy": -0.484}

$$$$
rasagiline_out
     RDKit          3D

 27 28  0  0  0  0  0  0  0  0999 V2000
  176.2740   20.7710   50.5830 C   0  0  0  0  0  0  0  0  0  0  0  0
  175.8660   20.2680   49.5720 C   0  0  0  0  0  0  0  0  0  0  0  0
  175.3700   19.6530   48.3340 C   0  0  0  0  0  0  0  0  0  0  0  0
  175.3100   20.6600   47.2840 N   0  0  0  0  0  0  0  0  0  0  0  0
  176.5260   20.6990   46.4800 C   0  0  2  0  0  0  0  0  0  0  0  0
  177.3620   19.4010   46.5330 C   0  0  0  0  0  0  0  0  0  0  0  0
  178.8170   19.8150   46.2670 C   0  0  0  0  0  0  0  0  0  0  0  0
  178.8370   21.1850   46.8680 C   0  0  0  0  0  0  0  0  0  0  0  0
  179.9400   21.9390   47.2310 C   0  0  0  0  0  0  0  0  0  0  0  0
  179.7260   23.2210   47.7430 C   0  0  0  0  0  0  0  0  0  0  0  0
  178.4250   23.7320   47.8750 C   0  0  0  0  0  0  0  0  0  0  0  0
  177.3200   22.9680   47.4930 C   0  0  0  0  0  0  0  0  0  0  0  0
  177.5360   21.6900   46.9990 C   0  0  0  0  0  0  0  0  0  0  0  0
  176.6478   21.2318   51.5092 H   0  0  0  0  0  0  0  0  0  0  0  0
  176.0497   18.8440   48.0282 H   0  0  0  0  0  0  0  0  0  0  0  0
  174.3647   19.2409   48.5057 H   0  0  0  0  0  0  0  0  0  0  0  0
  175.1720   21.5740   47.7140 H   0  0  0  0  0  0  0  0  0  0  0  0
  174.5350   20.4190   46.6650 H   0  0  0  0  0  0  0  0  0  0  0  0
  176.1211   20.9237   45.4822 H   0  0  0  0  0  0  0  0  0  0  0  0
  177.2745   18.9317   47.5240 H   0  0  0  0  0  0  0  0  0  0  0  0
  177.0121   18.6691   45.7901 H   0  0  0  0  0  0  0  0  0  0  0  0
  179.5271   19.1424   46.7704 H   0  0  0  0  0  0  0  0  0  0  0  0
  179.1128   19.7794   45.2081 H   0  0  0  0  0  0  0  0  0  0  0  0
  180.9585   21.5389   47.1191 H   0  0  0  0  0  0  0  0  0  0  0  0
  180.5858   23.8366   48.0459 H   0  0  0  0  0  0  0  0  0  0  0  0
  178.2747   24.7425   48.2827 H   0  0  0  0  0  0  0  0  0  0  0  0
  176.3004   23.3711   47.5820 H   0  0  0  0  0  0  0  0  0  0  0  0
  1  2  3  0
  2  3  1  0
  3  4  1  0
  4  5  1  0
  5  6  1  0
  6  7  1  0
  7  8  1  0
  8  9  2  0
  9 10  1  0
 10 11  2  0
 11 12  1  0
 12 13  2  0
 13  5  1  0
 13  8  1  0
  1 14  1  0
  3 15  1  0
  3 16  1  0
  4 17  1  0
  4 18  1  0
  5 19  1  6
  6 20  1  0
  6 21  1  0
  7 22  1  0
  7 23  1  0
  9 24  1  0
 10 25  1  0
 11 26  1  0
 12 27  1  0
M  CHG  1   4   1
M  END
>  <meeko>  (2) 
{"is_sidechain": [false], "free_energy": -5.763, "intermolecular_energy": -6.429, "internal_energy": -0.491}

$$$$
rasagiline_out
     RDKit          3D

 27 28  0  0  0  0  0  0  0  0999 V2000
  175.4330   18.0590   46.9570 C   0  0  0  0  0  0  0  0  0  0  0  0
  175.4090   19.2520   47.0950 C   0  0  0  0  0  0  0  0  0  0  0  0
  175.3790   20.7100   47.2620 C   0  0  0  0  0  0  0  0  0  0  0  0
  176.4690   21.3070   46.5010 N   0  0  0  0  0  0  0  0  0  0  0  0
  177.6740   21.4860   47.3020 C   0  0  2  0  0  0  0  0  0  0  0  0
  178.2480   22.9210   47.2710 C   0  0  0  0  0  0  0  0  0  0  0  0
  179.7560   22.7860   47.5280 C   0  0  0  0  0  0  0  0  0  0  0  0
  180.0330   21.4550   46.9030 C   0  0  0  0  0  0  0  0  0  0  0  0
  181.2580   20.9300   46.5270 C   0  0  0  0  0  0  0  0  0  0  0  0
  181.2890   19.6400   45.9920 C   0  0  0  0  0  0  0  0  0  0  0  0
  180.1080   18.8930   45.8540 C   0  0  0  0  0  0  0  0  0  0  0  0
  178.8800   19.4270   46.2500 C   0  0  0  0  0  0  0  0  0  0  0  0
  178.8520   20.7140   46.7660 C   0  0  0  0  0  0  0  0  0  0  0  0
  175.4550   16.9665   46.8306 H   0  0  0  0  0  0  0  0  0  0  0  0
  174.4184   21.1016   46.8961 H   0  0  0  0  0  0  0  0  0  0  0  0
  175.4943   20.9602   48.3269 H   0  0  0  0  0  0  0  0  0  0  0  0
  176.1670   22.2180   46.1560 H   0  0  0  0  0  0  0  0  0  0  0  0
  176.6960   20.6730   45.7340 H   0  0  0  0  0  0  0  0  0  0  0  0
  177.3232   21.1710   48.2958 H   0  0  0  0  0  0  0  0  0  0  0  0
  178.0686   23.3821   46.2886 H   0  0  0  0  0  0  0  0  0  0  0  0
  177.7686   23.5604   48.0269 H   0  0  0  0  0  0  0  0  0  0  0  0
  180.3234   23.5896   47.0357 H   0  0  0  0  0  0  0  0  0  0  0  0
  180.0442   22.8589   48.5871 H   0  0  0  0  0  0  0  0  0  0  0  0
  182.1827   21.5137   46.6465 H   0  0  0  0  0  0  0  0  0  0  0  0
  182.2484   19.2049   45.6756 H   0  0  0  0  0  0  0  0  0  0  0  0
  180.1506   17.8787   45.4304 H   0  0  0  0  0  0  0  0  0  0  0  0
  177.9549   18.8396   46.1547 H   0  0  0  0  0  0  0  0  0  0  0  0
  1  2  3  0
  2  3  1  0
  3  4  1  0
  4  5  1  0
  5  6  1  0
  6  7  1  0
  7  8  1  0
  8  9  2  0
  9 10  1  0
 10 11  2  0
 11 12  1  0
 12 13  2  0
 13  5  1  0
 13  8  1  0
  1 14  1  0
  3 15  1  0
  3 16  1  0
  4 17  1  0
  4 18  1  0
  5 19  1  1
  6 20  1  0
  6 21  1  0
  7 22  1  0
  7 23  1  0
  9 24  1  0
 10 25  1  0
 11 26  1  0
 12 27  1  0
M  CHG  1   4   1
M  END
>  <meeko>  (3) 
{"is_sidechain": [false], "free_energy": -5.639, "intermolecular_energy": -6.389, "internal_energy": -0.392}

$$$$
rasagiline_out
     RDKit          3D

 27 28  0  0  0  0  0  0  0  0999 V2000
  175.1400   24.4130   49.7090 C   0  0  0  0  0  0  0  0  0  0  0  0
  176.1280   24.1180   49.0930 C   0  0  0  0  0  0  0  0  0  0  0  0
  177.3340   23.7540   48.3380 C   0  0  0  0  0  0  0  0  0  0  0  0
  178.1460   22.8440   49.1350 N   0  0  0  0  0  0  0  0  0  0  0  0
  178.5580   21.6640   48.3830 C   0  0  2  0  0  0  0  0  0  0  0  0
  179.0320   21.9630   46.9430 C   0  0  0  0  0  0  0  0  0  0  0  0
  178.7550   20.6920   46.1260 C   0  0  0  0  0  0  0  0  0  0  0  0
  177.5360   20.1690   46.8190 C   0  0  0  0  0  0  0  0  0  0  0  0
  176.6280   19.2340   46.3520 C   0  0  0  0  0  0  0  0  0  0  0  0
  175.5730   18.8610   47.1880 C   0  0  0  0  0  0  0  0  0  0  0  0
  175.4480   19.4130   48.4730 C   0  0  0  0  0  0  0  0  0  0  0  0
  176.3780   20.3450   48.9390 C   0  0  0  0  0  0  0  0  0  0  0  0
  177.4140   20.7240   48.1000 C   0  0  0  0  0  0  0  0  0  0  0  0
  174.2352   24.6832   50.2732 H   0  0  0  0  0  0  0  0  0  0  0  0
  177.0442   23.2606   47.3986 H   0  0  0  0  0  0  0  0  0  0  0  0
  177.9134   24.6609   48.1104 H   0  0  0  0  0  0  0  0  0  0  0  0
  177.6030   22.5440   49.9440 H   0  0  0  0  0  0  0  0  0  0  0  0
  178.9900   23.3440   49.4150 H   0  0  0  0  0  0  0  0  0  0  0  0
  179.3473   21.2569   49.0321 H   0  0  0  0  0  0  0  0  0  0  0  0
  178.4721   22.8133   46.5264 H   0  0  0  0  0  0  0  0  0  0  0  0
  180.0992   22.2286   46.9201 H   0  0  0  0  0  0  0  0  0  0  0  0
  178.5509   20.9262   45.0708 H   0  0  0  0  0  0  0  0  0  0  0  0
  179.5957   19.9835   46.0895 H   0  0  0  0  0  0  0  0  0  0  0  0
  176.7347   18.7962   45.3485 H   0  0  0  0  0  0  0  0  0  0  0  0
  174.8327   18.1275   46.8361 H   0  0  0  0  0  0  0  0  0  0  0  0
  174.6105   19.1088   49.1181 H   0  0  0  0  0  0  0  0  0  0  0  0
  176.2901   20.7691   49.9501 H   0  0  0  0  0  0  0  0  0  0  0  0
  1  2  3  0
  2  3  1  0
  3  4  1  0
  4  5  1  0
  5  6  1  0
  6  7  1  0
  7  8  1  0
  8  9  2  0
  9 10  1  0
 10 11  2  0
 11 12  1  0
 12 13  2  0
 13  5  1  0
 13  8  1  0
  1 14  1  0
  3 15  1  0
  3 16  1  0
  4 17  1  0
  4 18  1  0
  5 19  1  1
  6 20  1  0
  6 21  1  0
  7 22  1  0
  7 23  1  0
  9 24  1  0
 10 25  1  0
 11 26  1  0
 12 27  1  0
M  CHG  1   4   1
M  END
>  <meeko>  (4) 
{"is_sidechain": [false], "free_energy": -5.552, "intermolecular_energy": -6.262, "internal_energy": -0.423}

$$$$
rasagiline_out
     RDKit          3D

 27 28  0  0  0  0  0  0  0  0999 V2000
  180.8050   18.4670   44.7100 C   0  0  0  0  0  0  0  0  0  0  0  0
  181.1180   19.3510   45.4610 C   0  0  0  0  0  0  0  0  0  0  0  0
  181.5020   20.4290   46.3810 C   0  0  0  0  0  0  0  0  0  0  0  0
  180.4420   20.6300   47.3600 N   0  0  0  0  0  0  0  0  0  0  0  0
  179.3850   21.5030   46.8630 C   0  0  2  0  0  0  0  0  0  0  0  0
  179.1310   22.7510   47.7380 C   0  0  0  0  0  0  0  0  0  0  0  0
  177.6600   23.1370   47.5210 C   0  0  0  0  0  0  0  0  0  0  0  0
  177.0460   21.7930   47.2810 C   0  0  0  0  0  0  0  0  0  0  0  0
  175.7070   21.4450   47.3450 C   0  0  0  0  0  0  0  0  0  0  0  0
  175.3510   20.1290   47.0440 C   0  0  0  0  0  0  0  0  0  0  0  0
  176.3260   19.1890   46.6740 C   0  0  0  0  0  0  0  0  0  0  0  0
  177.6720   19.5540   46.5990 C   0  0  0  0  0  0  0  0  0  0  0  0
  178.0240   20.8580   46.9140 C   0  0  0  0  0  0  0  0  0  0  0  0
  180.5184   17.6576   44.0224 H   0  0  0  0  0  0  0  0  0  0  0  0
  182.4329   20.1552   46.8990 H   0  0  0  0  0  0  0  0  0  0  0  0
  181.6590   21.3581   45.8134 H   0  0  0  0  0  0  0  0  0  0  0  0
  180.8460   21.0490   48.1970 H   0  0  0  0  0  0  0  0  0  0  0  0
  180.0260   19.7200   47.5600 H   0  0  0  0  0  0  0  0  0  0  0  0
  179.7527   21.7380   45.8533 H   0  0  0  0  0  0  0  0  0  0  0  0
  179.3110   22.5165   48.7975 H   0  0  0  0  0  0  0  0  0  0  0  0
  179.8055   23.5756   47.4641 H   0  0  0  0  0  0  0  0  0  0  0  0
  177.2340   23.6229   48.4112 H   0  0  0  0  0  0  0  0  0  0  0  0
  177.4958   23.8625   46.7106 H   0  0  0  0  0  0  0  0  0  0  0  0
  174.9440   22.1860   47.6256 H   0  0  0  0  0  0  0  0  0  0  0  0
  174.2951   19.8253   47.0973 H   0  0  0  0  0  0  0  0  0  0  0  0
  176.0272   18.1563   46.4412 H   0  0  0  0  0  0  0  0  0  0  0  0
  178.4364   18.8231   46.2966 H   0  0  0  0  0  0  0  0  0  0  0  0
  1  2  3  0
  2  3  1  0
  3  4  1  0
  4  5  1  0
  5  6  1  0
  6  7  1  0
  7  8  1  0
  8  9  2  0
  9 10  1  0
 10 11  2  0
 11 12  1  0
 12 13  2  0
 13  5  1  0
 13  8  1  0
  1 14  1  0
  3 15  1  0
  3 16  1  0
  4 17  1  0
  4 18  1  0
  5 19  1  6
  6 20  1  0
  6 21  1  0
  7 22  1  0
  7 23  1  0
  9 24  1  0
 10 25  1  0
 11 26  1  0
 12 27  1  0
M  CHG  1   4   1
M  END
>  <meeko>  (5) 
{"is_sidechain": [false], "free_energy": -5.515, "intermolecular_energy": -6.222, "internal_energy": -0.421}

$$$$
rasagiline_out
     RDKit          3D

 27 28  0  0  0  0  0  0  0  0999 V2000
  175.4140   24.7680   49.8910 C   0  0  0  0  0  0  0  0  0  0  0  0
  174.7870   23.7870   49.5960 C   0  0  0  0  0  0  0  0  0  0  0  0
  174.0190   22.5880   49.2380 C   0  0  0  0  0  0  0  0  0  0  0  0
  174.8980   21.4260   49.2620 N   0  0  0  0  0  0  0  0  0  0  0  0
  175.2110   20.9370   47.9250 C   0  0  2  0  0  0  0  0  0  0  0  0
  175.1380   19.4000   47.7790 C   0  0  0  0  0  0  0  0  0  0  0  0
  176.1060   19.0290   46.6470 C   0  0  0  0  0  0  0  0  0  0  0  0
  177.1480   20.0920   46.8030 C   0  0  0  0  0  0  0  0  0  0  0  0
  178.4350   20.1040   46.2920 C   0  0  0  0  0  0  0  0  0  0  0  0
  179.2320   21.2260   46.5330 C   0  0  0  0  0  0  0  0  0  0  0  0
  178.7330   22.3150   47.2640 C   0  0  0  0  0  0  0  0  0  0  0  0
  177.4300   22.2980   47.7640 C   0  0  0  0  0  0  0  0  0  0  0  0
  176.6470   21.1760   47.5360 C   0  0  0  0  0  0  0  0  0  0  0  0
  175.9883   25.6665   50.1612 H   0  0  0  0  0  0  0  0  0  0  0  0
  173.2024   22.4456   49.9611 H   0  0  0  0  0  0  0  0  0  0  0  0
  173.5970   22.7091   48.2294 H   0  0  0  0  0  0  0  0  0  0  0  0
  174.4400   20.6800   49.7850 H   0  0  0  0  0  0  0  0  0  0  0  0
  175.7740   21.7080   49.7030 H   0  0  0  0  0  0  0  0  0  0  0  0
  174.4680   21.4749   47.3179 H   0  0  0  0  0  0  0  0  0  0  0  0
  175.4440   18.9133   48.7168 H   0  0  0  0  0  0  0  0  0  0  0  0
  174.1137   19.0676   47.5545 H   0  0  0  0  0  0  0  0  0  0  0  0
  176.5294   18.0240   46.7906 H   0  0  0  0  0  0  0  0  0  0  0  0
  175.6438   18.9897   45.6496 H   0  0  0  0  0  0  0  0  0  0  0  0
  178.8198   19.2525   45.7116 H   0  0  0  0  0  0  0  0  0  0  0  0
  180.2611   21.2560   46.1458 H   0  0  0  0  0  0  0  0  0  0  0  0
  179.3746   23.1900   47.4446 H   0  0  0  0  0  0  0  0  0  0  0  0
  177.0327   23.1557   48.3266 H   0  0  0  0  0  0  0  0  0  0  0  0
  1  2  3  0
  2  3  1  0
  3  4  1  0
  4  5  1  0
  5  6  1  0
  6  7  1  0
  7  8  1  0
  8  9  2  0
  9 10  1  0
 10 11  2  0
 11 12  1  0
 12 13  2  0
 13  5  1  0
 13  8  1  0
  1 14  1  0
  3 15  1  0
  3 16  1  0
  4 17  1  0
  4 18  1  0
  5 19  1  6
  6 20  1  0
  6 21  1  0
  7 22  1  0
  7 23  1  0
  9 24  1  0
 10 25  1  0
 11 26  1  0
 12 27  1  0
M  CHG  1   4   1
M  END
>  <meeko>  (6) 
{"is_sidechain": [false], "free_energy": -5.469, "intermolecular_energy": -6.245, "internal_energy": -0.347}

$$$$
rasagiline_out
     RDKit          3D

 27 28  0  0  0  0  0  0  0  0999 V2000
  182.6790   21.5170   46.0530 C   0  0  0  0  0  0  0  0  0  0  0  0
  181.8850   20.6340   45.8720 C   0  0  0  0  0  0  0  0  0  0  0  0
  180.9150   19.5540   45.6490 C   0  0  0  0  0  0  0  0  0  0  0  0
  179.5900   20.1270   45.4560 N   0  0  0  0  0  0  0  0  0  0  0  0
  178.7800   20.0740   46.6680 C   0  0  2  0  0  0  0  0  0  0  0  0
  177.4150   19.3720   46.4860 C   0  0  0  0  0  0  0  0  0  0  0  0
  176.4740   19.9840   47.5350 C   0  0  0  0  0  0  0  0  0  0  0  0
  177.0150   21.3760   47.6240 C   0  0  0  0  0  0  0  0  0  0  0  0
  176.3960   22.4970   48.1510 C   0  0  0  0  0  0  0  0  0  0  0  0
  177.1060   23.7000   48.1650 C   0  0  0  0  0  0  0  0  0  0  0  0
  178.4180   23.7630   47.6690 C   0  0  0  0  0  0  0  0  0  0  0  0
  179.0370   22.6240   47.1520 C   0  0  0  0  0  0  0  0  0  0  0  0
  178.3230   21.4350   47.1250 C   0  0  0  0  0  0  0  0  0  0  0  0
  183.4061   22.3256   46.2188 H   0  0  0  0  0  0  0  0  0  0  0  0
  181.2016   18.9821   44.7541 H   0  0  0  0  0  0  0  0  0  0  0  0
  180.9026   18.8848   46.5219 H   0  0  0  0  0  0  0  0  0  0  0  0
  179.1130   19.6070   44.7210 H   0  0  0  0  0  0  0  0  0  0  0  0
  179.7090   21.1090   45.2040 H   0  0  0  0  0  0  0  0  0  0  0  0
  179.4574   19.5529   47.3606 H   0  0  0  0  0  0  0  0  0  0  0  0
  177.0256   19.5525   45.4732 H   0  0  0  0  0  0  0  0  0  0  0  0
  177.5043   18.2832   46.6148 H   0  0  0  0  0  0  0  0  0  0  0  0
  175.4286   19.9777   47.1929 H   0  0  0  0  0  0  0  0  0  0  0  0
  176.4497   19.4442   48.4931 H   0  0  0  0  0  0  0  0  0  0  0  0
  175.3717   22.4417   48.5483 H   0  0  0  0  0  0  0  0  0  0  0  0
  176.6324   24.6071   48.5687 H   0  0  0  0  0  0  0  0  0  0  0  0
  178.9628   24.7184   47.6881 H   0  0  0  0  0  0  0  0  0  0  0  0
  180.0691   22.6682   46.7740 H   0  0  0  0  0  0  0  0  0  0  0  0
  1  2  3  0
  2  3  1  0
  3  4  1  0
  4  5  1  0
  5  6  1  0
  6  7  1  0
  7  8  1  0
  8  9  2  0
  9 10  1  0
 10 11  2  0
 11 12  1  0
 12 13  2  0
 13  5  1  0
 13  8  1  0
  1 14  1  0
  3 15  1  0
  3 16  1  0
  4 17  1  0
  4 18  1  0
  5 19  1  1
  6 20  1  0
  6 21  1  0
  7 22  1  0
  7 23  1  0
  9 24  1  0
 10 25  1  0
 11 26  1  0
 12 27  1  0
M  CHG  1   4   1
M  END
>  <meeko>  (7) 
{"is_sidechain": [false], "free_energy": -5.441, "intermolecular_energy": -6.165, "internal_energy": -0.396}

$$$$
rasagiline_out
     RDKit          3D

 27 28  0  0  0  0  0  0  0  0999 V2000
  181.2040   19.6370   46.3420 C   0  0  0  0  0  0  0  0  0  0  0  0
  180.7400   20.5400   46.9830 C   0  0  0  0  0  0  0  0  0  0  0  0
  180.1700   21.6430   47.7680 C   0  0  0  0  0  0  0  0  0  0  0  0
  179.1210   22.2950   46.9960 N   0  0  0  0  0  0  0  0  0  0  0  0
  177.8210   22.2220   47.6510 C   0  0  2  0  0  0  0  0  0  0  0  0
  177.8880   22.2350   49.1950 C   0  0  0  0  0  0  0  0  0  0  0  0
  176.6410   21.4870   49.6870 C   0  0  0  0  0  0  0  0  0  0  0  0
  176.4500   20.4950   48.5830 C   0  0  0  0  0  0  0  0  0  0  0  0
  175.6940   19.3350   48.6020 C   0  0  0  0  0  0  0  0  0  0  0  0
  175.6270   18.5700   47.4350 C   0  0  0  0  0  0  0  0  0  0  0  0
  176.3000   18.9770   46.2720 C   0  0  0  0  0  0  0  0  0  0  0  0
  177.0490   20.1550   46.2600 C   0  0  0  0  0  0  0  0  0  0  0  0
  177.1260   20.9040   47.4250 C   0  0  0  0  0  0  0  0  0  0  0  0
  181.6291   18.8097   45.7547 H   0  0  0  0  0  0  0  0  0  0  0  0
  179.7457   21.2473   48.7026 H   0  0  0  0  0  0  0  0  0  0  0  0
  180.9592   22.3719   48.0042 H   0  0  0  0  0  0  0  0  0  0  0  0
  179.0540   21.8400   46.0850 H   0  0  0  0  0  0  0  0  0  0  0  0
  179.3690   23.2800   46.9030 H   0  0  0  0  0  0  0  0  0  0  0  0
  177.3121   23.0978   47.2221 H   0  0  0  0  0  0  0  0  0  0  0  0
  178.7992   21.7251   49.5409 H   0  0  0  0  0  0  0  0  0  0  0  0
  177.9173   23.2631   49.5851 H   0  0  0  0  0  0  0  0  0  0  0  0
  176.8226   20.9890   50.6508 H   0  0  0  0  0  0  0  0  0  0  0  0
  175.7694   22.1316   49.8737 H   0  0  0  0  0  0  0  0  0  0  0  0
  175.1602   19.0240   49.5121 H   0  0  0  0  0  0  0  0  0  0  0  0
  175.0409   17.6392   47.4272 H   0  0  0  0  0  0  0  0  0  0  0  0
  176.2365   18.3621   45.3621 H   0  0  0  0  0  0  0  0  0  0  0  0
  177.5669   20.4822   45.3464 H   0  0  0  0  0  0  0  0  0  0  0  0
  1  2  3  0
  2  3  1  0
  3  4  1  0
  4  5  1  0
  5  6  1  0
  6  7  1  0
  7  8  1  0
  8  9  2  0
  9 10  1  0
 10 11  2  0
 11 12  1  0
 12 13  2  0
 13  5  1  0
 13  8  1  0
  1 14  1  0
  3 15  1  0
  3 16  1  0
  4 17  1  0
  4 18  1  0
  5 19  1  6
  6 20  1  0
  6 21  1  0
  7 22  1  0
  7 23  1  0
  9 24  1  0
 10 25  1  0
 11 26  1  0
 12 27  1  0
M  CHG  1   4   1
M  END
>  <meeko>  (8) 
{"is_sidechain": [false], "free_energy": -5.373, "intermolecular_energy": -5.975, "internal_energy": -0.51}

$$$$
rasagiline_out
     RDKit          3D

 27 28  0  0  0  0  0  0  0  0999 V2000
  181.1370   21.1350   49.3490 C   0  0  0  0  0  0  0  0  0  0  0  0
  180.1710   21.5280   49.9440 C   0  0  0  0  0  0  0  0  0  0  0  0
  178.9880   22.0080   50.6710 C   0  0  0  0  0  0  0  0  0  0  0  0
  178.1500   22.7880   49.7700 N   0  0  0  0  0  0  0  0  0  0  0  0
  176.8810   22.1300   49.4810 C   0  0  2  0  0  0  0  0  0  0  0  0
  176.4120   21.1490   50.5790 C   0  0  0  0  0  0  0  0  0  0  0  0
  175.5410   20.0990   49.8740 C   0  0  0  0  0  0  0  0  0  0  0  0
  176.1940   20.0450   48.5280 C   0  0  0  0  0  0  0  0  0  0  0  0
  176.0730   19.0610   47.5620 C   0  0  0  0  0  0  0  0  0  0  0  0
  176.7490   19.2350   46.3520 C   0  0  0  0  0  0  0  0  0  0  0  0
  177.5200   20.3850   46.1210 C   0  0  0  0  0  0  0  0  0  0  0  0
  177.6240   21.3780   47.0960 C   0  0  0  0  0  0  0  0  0  0  0  0
  176.9640   21.1950   48.3020 C   0  0  0  0  0  0  0  0  0  0  0  0
  182.0220   20.7750   48.8039 H   0  0  0  0  0  0  0  0  0  0  0  0
  178.4170   21.1481   51.0512 H   0  0  0  0  0  0  0  0  0  0  0  0
  179.3058   22.6379   51.5149 H   0  0  0  0  0  0  0  0  0  0  0  0
  178.6530   22.9270   48.8940 H   0  0  0  0  0  0  0  0  0  0  0  0
  177.9440   23.6760   50.2280 H   0  0  0  0  0  0  0  0  0  0  0  0
  176.2133   22.9935   49.3453 H   0  0  0  0  0  0  0  0  0  0  0  0
  177.2788   20.6675   51.0553 H   0  0  0  0  0  0  0  0  0  0  0  0
  175.8504   21.6704   51.3681 H   0  0  0  0  0  0  0  0  0  0  0  0
  175.5876   19.1261   50.3851 H   0  0  0  0  0  0  0  0  0  0  0  0
  174.4684   20.3419   49.8487 H   0  0  0  0  0  0  0  0  0  0  0  0
  175.4605   18.1653   47.7425 H   0  0  0  0  0  0  0  0  0  0  0  0
  176.6763   18.4627   45.5720 H   0  0  0  0  0  0  0  0  0  0  0  0
  178.0470   20.5046   45.1629 H   0  0  0  0  0  0  0  0  0  0  0  0
  178.2166   22.2863   46.9120 H   0  0  0  0  0  0  0  0  0  0  0  0
  1  2  3  0
  2  3  1  0
  3  4  1  0
  4  5  1  0
  5  6  1  0
  6  7  1  0
  7  8  1  0
  8  9  2  0
  9 10  1  0
 10 11  2  0
 11 12  1  0
 12 13  2  0
 13  5  1  0
 13  8  1  0
  1 14  1  0
  3 15  1  0
  3 16  1  0
  4 17  1  0
  4 18  1  0
  5 19  1  6
  6 20  1  0
  6 21  1  0
  7 22  1  0
  7 23  1  0
  9 24  1  0
 10 25  1  0
 11 26  1  0
 12 27  1  0
M  CHG  1   4   1
M  END
>  <meeko>  (9) 
{"is_sidechain": [false], "free_energy": -5.347, "intermolecular_energy": -5.922, "internal_energy": -0.534}

$$$$
