
 OpenBabel09302610443D

 32 32  0  0  0  0  0  0  0  0999 V2000
    4.9720    1.9586   -0.5655 C   0  0  0  0  0  0  0  0  0  0  0  0
    4.0299    1.4543   -0.0164 C   0  0  0  0  0  0  0  0  0  0  0  0
    2.8746    0.8407    0.6620 C   0  0  0  0  0  0  0  0  0  0  0  0
    1.9477    0.2195   -0.2986 N   0  3  1  0  0  0  0  0  0  0  0  0
    2.5282   -0.9912   -0.8849 C   0  0  0  0  0  0  0  0  0  0  0  0
    0.5983    0.0165    0.2902 C   0  0  2  0  0  0  0  0  0  0  0  0
    0.5328   -1.0987    1.3467 C   0  0  0  0  0  0  0  0  0  0  0  0
   -0.4542   -0.2054   -0.8305 C   0  0  0  0  0  0  0  0  0  0  0  0
   -1.8850   -0.0447   -0.3644 C   0  0  0  0  0  0  0  0  0  0  0  0
   -2.7019   -1.1659   -0.1653 C   0  0  0  0  0  0  0  0  0  0  0  0
   -4.0181   -1.0130    0.2734 C   0  0  0  0  0  0  0  0  0  0  0  0
   -4.5304    0.2602    0.5156 C   0  0  0  0  0  0  0  0  0  0  0  0
   -3.7278    1.3821    0.3182 C   0  0  0  0  0  0  0  0  0  0  0  0
   -2.4115    1.2313   -0.1201 C   0  0  0  0  0  0  0  0  0  0  0  0
    5.7515    2.3758   -1.0198 H   0  0  0  0  0  0  0  0  0  0  0  0
    2.3517    1.5969    1.2094 H   0  0  0  0  0  0  0  0  0  0  0  0
    3.2386    0.0768    1.3169 H   0  0  0  0  0  0  0  0  0  0  0  0
    1.8068    0.8667   -1.0743 H   0  0  0  0  0  0  0  0  0  0  0  0
    2.7003   -1.7134   -0.1144 H   0  0  0  0  0  0  0  0  0  0  0  0
    3.4559   -0.7482   -1.3595 H   0  0  0  0  0  0  0  0  0  0  0  0
    1.8524   -1.3962   -1.6089 H   0  0  0  0  0  0  0  0  0  0  0  0
    0.3672    0.9169    0.8201 H   0  0  0  0  0  0  0  0  0  0  0  0
    0.7550   -2.0390    0.8870 H   0  0  0  0  0  0  0  0  0  0  0  0
   -0.4494   -1.1318    1.7699 H   0  0  0  0  0  0  0  0  0  0  0  0
    1.2472   -0.9013    2.1184 H   0  0  0  0  0  0  0  0  0  0  0  0
   -0.3339   -1.1967   -1.2150 H   0  0  0  0  0  0  0  0  0  0  0  0
   -0.2819    0.5453   -1.5732 H   0  0  0  0  0  0  0  0  0  0  0  0
   -2.3278   -2.1109   -0.3442 H   0  0  0  0  0  0  0  0  0  0  0  0
   -4.6127   -1.8439    0.4186 H   0  0  0  0  0  0  0  0  0  0  0  0
   -5.5034    0.3721    0.8409 H   0  0  0  0  0  0  0  0  0  0  0  0
   -4.1071    2.3252    0.4963 H   0  0  0  0  0  0  0  0  0  0  0  0
   -1.8213    2.0653   -0.2654 H   0  0  0  0  0  0  0  0  0  0  0  0
  1  2  3  0  0  0  0
  1 15  1  0  0  0  0
  2  3  1  0  0  0  0
  3  4  1  0  0  0  0
  3 16  1  0  0  0  0
  3 17  1  0  0  0  0
  4  5  1  0  0  0  0
  4  6  1  0  0  0  0
  4 18  1  6  0  0  0
  5 19  1  0  0  0  0
  5 20  1  0  0  0  0
  5 21  1  0  0  0  0
  6  7  1  0  0  0  0
  6  8  1  0  0  0  0
  6 22  1  1  0  0  0
  7 23  1  0  0  0  0
  7 24  1  0  0  0  0
  7 25  1  0  0  0  0
  8  9  1  0  0  0  0
  8 26  1  0  0  0  0
  8 27  1  0  0  0  0
  9 10  2  0  0  0  0
 10 11  1  0  0  0  0
 10 28  1  0  0  0  0
 11 12  2  0  0  0  0
 11 29  1  0  0  0  0
 12 13  1  0  0  0  0
 12 30  1  0  0  0  0
 13 14  2  0  0  0  0
 13 31  1  0  0  0  0
 14  9  1  0  0  0  0
 14 32  1  0  0  0  0
M  CHG  1   4   1
M  END
$$$$
