native_9IV_out
     RDKit          3D

 37 40  0  0  0  0  0  0  0  0999 V2000
   19.3610  -22.7300   40.2630 Cl  0  0  0  0  0  0  0  0  0  0  0  0
   18.8110  -23.0680   38.6640 C   0  0  0  0  0  0  0  0  0  0  0  0
   19.0540  -22.1280   37.6600 C   0  0  0  0  0  0  0  0  0  0  0  0
   18.6230  -22.3720   36.3540 C   0  0  0  0  0  0  0  0  0  0  0  0
   17.9530  -23.5570   36.0490 C   0  0  0  0  0  0  0  0  0  0  0  0
   17.7080  -24.4990   37.0490 C   0  0  0  0  0  0  0  0  0  0  0  0
   18.1210  -24.2470   38.3630 C   0  0  0  0  0  0  0  0  0  0  0  0
   17.9220  -25.1840   39.3550 O   0  0  0  0  0  0  0  0  0  0  0  0
   19.0310  -25.8600   39.8070 C   0  0  0  0  0  0  0  0  0  0  0  0
   20.1500  -26.1080   39.0110 C   0  0  0  0  0  0  0  0  0  0  0  0
   21.2260  -26.8300   39.5340 C   0  0  0  0  0  0  0  0  0  0  0  0
   21.2010  -27.3140   40.8500 C   0  0  0  0  0  0  0  0  0  0  0  0
   22.3060  -28.0620   41.3070 N   0  0  0  0  0  0  0  0  0  0  0  0
   22.9570  -27.9720   42.5470 C   0  0  0  0  0  0  0  0  0  0  0  0
   22.6180  -26.9230   43.3390 N   0  0  0  0  0  0  0  0  0  0  0  0
   23.2110  -26.8040   44.5430 C   0  0  0  0  0  0  0  0  0  0  0  0
   24.1210  -27.6150   45.1050 N   0  0  0  0  0  0  0  0  0  0  0  0
   24.4050  -28.6540   44.3050 C   0  0  0  0  0  0  0  0  0  0  0  0
   25.2770  -29.6590   44.6200 N   0  0  0  0  0  0  0  0  0  0  0  0
   25.3180  -30.5740   43.5980 C   0  0  0  0  0  0  0  0  0  0  0  0
   24.4560  -30.1380   42.6130 C   0  0  0  0  0  0  0  0  0  0  0  0
   23.8810  -28.9080   43.0470 C   0  0  0  0  0  0  0  0  0  0  0  0
   20.0520  -27.0940   41.6190 C   0  0  0  0  0  0  0  0  0  0  0  0
   18.9720  -26.3720   41.1020 C   0  0  0  0  0  0  0  0  0  0  0  0
   19.5853  -21.1947   37.8980 H   0  0  0  0  0  0  0  0  0  0  0  0
   18.8121  -21.6290   35.5652 H   0  0  0  0  0  0  0  0  0  0  0  0
   17.6175  -23.7490   35.0192 H   0  0  0  0  0  0  0  0  0  0  0  0
   17.1909  -25.4387   36.8052 H   0  0  0  0  0  0  0  0  0  0  0  0
   20.1849  -25.7367   37.9762 H   0  0  0  0  0  0  0  0  0  0  0  0
   22.1067  -27.0218   38.9034 H   0  0  0  0  0  0  0  0  0  0  0  0
   22.6660  -28.7280   40.6780 H   0  0  0  0  0  0  0  0  0  0  0  0
   22.9112  -25.9311   45.1415 H   0  0  0  0  0  0  0  0  0  0  0  0
   25.7980  -29.7180   45.4530 H   0  0  0  0  0  0  0  0  0  0  0  0
   25.9276  -31.4892   43.5694 H   0  0  0  0  0  0  0  0  0  0  0  0
   24.2491  -30.6491   41.6612 H   0  0  0  0  0  0  0  0  0  0  0  0
   19.9982  -27.4940   42.6423 H   0  0  0  0  0  0  0  0  0  0  0  0
   18.0753  -26.2080   41.7176 H   0  0  0  0  0  0  0  0  0  0  0  0
  1  2  1  0
  2  3  2  0
  3  4  1  0
  4  5  2  0
  5  6  1  0
  6  7  2  0
  7  8  1  0
  8  9  1  0
  9 10  2  0
 10 11  1  0
 11 12  2  0
 12 13  1  0
 13 14  1  0
 14 15  2  0
 15 16  1  0
 16 17  2  0
 17 18  1  0
 18 19  1  0
 19 20  1  0
 20 21  2  0
 21 22  1  0
 12 23  1  0
 23 24  2  0
  7  2  1  0
 24  9  1  0
 22 14  1  0
 22 18  2  0
  3 25  1  0
  4 26  1  0
  5 27  1  0
  6 28  1  0
 10 29  1  0
 11 30  1  0
 13 31  1  0
 16 32  1  0
 19 33  1  0
 20 34  1  0
 21 35  1  0
 23 36  1  0
 24 37  1  0
M  END
>  <meeko>  (1) 
{"is_sidechain": [false], "free_energy": -8.661, "intermolecular_energy": -10.687, "internal_energy": -0.144}

$$$$
native_9IV_out
     RDKit          3D

 37 40  0  0  0  0  0  0  0  0999 V2000
   16.6350  -24.5180   36.0500 Cl  0  0  0  0  0  0  0  0  0  0  0  0
   17.7370  -24.0390   37.2880 C   0  0  0  0  0  0  0  0  0  0  0  0
   18.3390  -22.7810   37.1970 C   0  0  0  0  0  0  0  0  0  0  0  0
   19.2350  -22.3620   38.1830 C   0  0  0  0  0  0  0  0  0  0  0  0
   19.5260  -23.1950   39.2630 C   0  0  0  0  0  0  0  0  0  0  0  0
   18.9270  -24.4520   39.3580 C   0  0  0  0  0  0  0  0  0  0  0  0
   18.0440  -24.8840   38.3590 C   0  0  0  0  0  0  0  0  0  0  0  0
   17.4140  -26.1050   38.4570 O   0  0  0  0  0  0  0  0  0  0  0  0
   18.1550  -27.2190   38.1370 C   0  0  0  0  0  0  0  0  0  0  0  0
   18.6880  -27.4400   36.8660 C   0  0  0  0  0  0  0  0  0  0  0  0
   19.4040  -28.6120   36.6100 C   0  0  0  0  0  0  0  0  0  0  0  0
   19.5950  -29.5760   37.6110 C   0  0  0  0  0  0  0  0  0  0  0  0
   20.3020  -30.7510   37.2790 N   0  0  0  0  0  0  0  0  0  0  0  0
   19.7780  -32.0000   36.9110 C   0  0  0  0  0  0  0  0  0  0  0  0
   19.8250  -32.3150   35.5910 N   0  0  0  0  0  0  0  0  0  0  0  0
   19.3420  -33.5100   35.1940 C   0  0  0  0  0  0  0  0  0  0  0  0
   18.8080  -34.4820   35.9500 N   0  0  0  0  0  0  0  0  0  0  0  0
   18.8090  -34.1440   37.2480 C   0  0  0  0  0  0  0  0  0  0  0  0
   18.3510  -34.9440   38.2580 N   0  0  0  0  0  0  0  0  0  0  0  0
   18.5180  -34.3110   39.4630 C   0  0  0  0  0  0  0  0  0  0  0  0
   19.0910  -33.0820   39.2130 C   0  0  0  0  0  0  0  0  0  0  0  0
   19.2660  -32.9590   37.8040 C   0  0  0  0  0  0  0  0  0  0  0  0
   19.0160  -29.3570   38.8660 C   0  0  0  0  0  0  0  0  0  0  0  0
   18.2980  -28.1870   39.1290 C   0  0  0  0  0  0  0  0  0  0  0  0
   18.1070  -22.1206   36.3484 H   0  0  0  0  0  0  0  0  0  0  0  0
   19.7118  -21.3736   38.1076 H   0  0  0  0  0  0  0  0  0  0  0  0
   20.2284  -22.8609   40.0408 H   0  0  0  0  0  0  0  0  0  0  0  0
   19.1478  -25.1033   40.2165 H   0  0  0  0  0  0  0  0  0  0  0  0
   18.5449  -26.6948   36.0696 H   0  0  0  0  0  0  0  0  0  0  0  0
   19.8246  -28.7815   35.6078 H   0  0  0  0  0  0  0  0  0  0  0  0
   21.2830  -30.6870   37.3100 H   0  0  0  0  0  0  0  0  0  0  0  0
   19.3920  -33.7138   34.1142 H   0  0  0  0  0  0  0  0  0  0  0  0
   17.9600  -35.8400   38.1390 H   0  0  0  0  0  0  0  0  0  0  0  0
   18.2443  -34.7113   40.4504 H   0  0  0  0  0  0  0  0  0  0  0  0
   19.3646  -32.3297   39.9675 H   0  0  0  0  0  0  0  0  0  0  0  0
   19.1273  -30.1150   39.6553 H   0  0  0  0  0  0  0  0  0  0  0  0
   17.8457  -28.0303   40.1194 H   0  0  0  0  0  0  0  0  0  0  0  0
  1  2  1  0
  2  3  2  0
  3  4  1  0
  4  5  2  0
  5  6  1  0
  6  7  2  0
  7  8  1  0
  8  9  1  0
  9 10  2  0
 10 11  1  0
 11 12  2  0
 12 13  1  0
 13 14  1  0
 14 15  2  0
 15 16  1  0
 16 17  2  0
 17 18  1  0
 18 19  1  0
 19 20  1  0
 20 21  2  0
 21 22  1  0
 12 23  1  0
 23 24  2  0
  7  2  1  0
 24  9  1  0
 22 14  1  0
 22 18  2  0
  3 25  1  0
  4 26  1  0
  5 27  1  0
  6 28  1  0
 10 29  1  0
 11 30  1  0
 13 31  1  0
 16 32  1  0
 19 33  1  0
 20 34  1  0
 21 35  1  0
 23 36  1  0
 24 37  1  0
M  END
>  <meeko>  (2) 
{"is_sidechain": [false], "free_energy": -8.521, "intermolecular_energy": -9.729, "internal_energy": -0.929}

$$$$
native_9IV_out
     RDKit          3D

 37 40  0  0  0  0  0  0  0  0999 V2000
   18.1740  -23.9260   36.8260 Cl  0  0  0  0  0  0  0  0  0  0  0  0
   18.6120  -24.1120   38.4840 C   0  0  0  0  0  0  0  0  0  0  0  0
   19.2900  -23.0680   39.1180 C   0  0  0  0  0  0  0  0  0  0  0  0
   19.6580  -23.1860   40.4600 C   0  0  0  0  0  0  0  0  0  0  0  0
   19.3430  -24.3440   41.1720 C   0  0  0  0  0  0  0  0  0  0  0  0
   18.6650  -25.3900   40.5420 C   0  0  0  0  0  0  0  0  0  0  0  0
   18.3140  -25.2820   39.1910 C   0  0  0  0  0  0  0  0  0  0  0  0
   17.6100  -26.2870   38.5640 O   0  0  0  0  0  0  0  0  0  0  0  0
   18.3190  -27.4010   38.1790 C   0  0  0  0  0  0  0  0  0  0  0  0
   18.7720  -27.6030   36.8740 C   0  0  0  0  0  0  0  0  0  0  0  0
   19.4590  -28.7760   36.5530 C   0  0  0  0  0  0  0  0  0  0  0  0
   19.7020  -29.7600   37.5220 C   0  0  0  0  0  0  0  0  0  0  0  0
   20.3760  -30.9350   37.1260 N   0  0  0  0  0  0  0  0  0  0  0  0
   19.8190  -32.1760   36.7800 C   0  0  0  0  0  0  0  0  0  0  0  0
   19.8570  -32.5160   35.4660 N   0  0  0  0  0  0  0  0  0  0  0  0
   19.3430  -33.7040   35.0910 C   0  0  0  0  0  0  0  0  0  0  0  0
   18.7830  -34.6480   35.8640 N   0  0  0  0  0  0  0  0  0  0  0  0
   18.7940  -34.2870   37.1560 C   0  0  0  0  0  0  0  0  0  0  0  0
   18.3160  -35.0570   38.1800 N   0  0  0  0  0  0  0  0  0  0  0  0
   18.5010  -34.4070   39.3740 C   0  0  0  0  0  0  0  0  0  0  0  0
   19.1060  -33.1980   39.1020 C   0  0  0  0  0  0  0  0  0  0  0  0
   19.2830  -33.1050   37.6900 C   0  0  0  0  0  0  0  0  0  0  0  0
   19.2030  -29.5610   38.8140 C   0  0  0  0  0  0  0  0  0  0  0  0
   18.5140  -28.3890   39.1420 C   0  0  0  0  0  0  0  0  0  0  0  0
   19.5342  -22.1522   38.5597 H   0  0  0  0  0  0  0  0  0  0  0  0
   20.1967  -22.3653   40.9562 H   0  0  0  0  0  0  0  0  0  0  0  0
   19.6289  -24.4331   42.2304 H   0  0  0  0  0  0  0  0  0  0  0  0
   18.4070  -26.2980   41.1069 H   0  0  0  0  0  0  0  0  0  0  0  0
   18.5886  -26.8415   36.1017 H   0  0  0  0  0  0  0  0  0  0  0  0
   19.8151  -28.9303   35.5237 H   0  0  0  0  0  0  0  0  0  0  0  0
   21.3580  -30.8760   37.0870 H   0  0  0  0  0  0  0  0  0  0  0  0
   19.3880  -33.9287   34.0151 H   0  0  0  0  0  0  0  0  0  0  0  0
   17.9020  -35.9440   38.0770 H   0  0  0  0  0  0  0  0  0  0  0  0
   18.2179  -34.7824   40.3685 H   0  0  0  0  0  0  0  0  0  0  0  0
   19.3999  -32.4398   39.8428 H   0  0  0  0  0  0  0  0  0  0  0  0
   19.3544  -30.3353   39.5805 H   0  0  0  0  0  0  0  0  0  0  0  0
   18.1256  -28.2470   40.1613 H   0  0  0  0  0  0  0  0  0  0  0  0
  1  2  1  0
  2  3  2  0
  3  4  1  0
  4  5  2  0
  5  6  1  0
  6  7  2  0
  7  8  1  0
  8  9  1  0
  9 10  2  0
 10 11  1  0
 11 12  2  0
 12 13  1  0
 13 14  1  0
 14 15  2  0
 15 16  1  0
 16 17  2  0
 17 18  1  0
 18 19  1  0
 19 20  1  0
 20 21  2  0
 21 22  1  0
 12 23  1  0
 23 24  2  0
  7  2  1  0
 24  9  1  0
 22 14  1  0
 22 18  2  0
  3 25  1  0
  4 26  1  0
  5 27  1  0
  6 28  1  0
 10 29  1  0
 11 30  1  0
 13 31  1  0
 16 32  1  0
 19 33  1  0
 20 34  1  0
 21 35  1  0
 23 36  1  0
 24 37  1  0
M  END
>  <meeko>  (3) 
{"is_sidechain": [false], "free_energy": -8.492, "intermolecular_energy": -9.877, "internal_energy": -0.746}

$$$$
native_9IV_out
     RDKit          3D

 37 40  0  0  0  0  0  0  0  0999 V2000
   19.6930  -24.4860   40.2730 Cl  0  0  0  0  0  0  0  0  0  0  0  0
   18.9520  -23.9280   38.8180 C   0  0  0  0  0  0  0  0  0  0  0  0
   19.3830  -22.7170   38.2710 C   0  0  0  0  0  0  0  0  0  0  0  0
   18.8050  -22.2370   37.0940 C   0  0  0  0  0  0  0  0  0  0  0  0
   17.8010  -22.9680   36.4590 C   0  0  0  0  0  0  0  0  0  0  0  0
   17.3680  -24.1790   37.0020 C   0  0  0  0  0  0  0  0  0  0  0  0
   17.9310  -24.6520   38.1940 C   0  0  0  0  0  0  0  0  0  0  0  0
   17.5440  -25.8640   38.7230 O   0  0  0  0  0  0  0  0  0  0  0  0
   18.2600  -26.9730   38.3360 C   0  0  0  0  0  0  0  0  0  0  0  0
   18.6280  -27.2180   37.0120 C   0  0  0  0  0  0  0  0  0  0  0  0
   19.3290  -28.3840   36.6930 C   0  0  0  0  0  0  0  0  0  0  0  0
   19.6690  -29.3180   37.6820 C   0  0  0  0  0  0  0  0  0  0  0  0
   20.3500  -30.4880   37.2890 N   0  0  0  0  0  0  0  0  0  0  0  0
   19.8020  -31.7390   36.9610 C   0  0  0  0  0  0  0  0  0  0  0  0
   19.8420  -32.0970   35.6530 N   0  0  0  0  0  0  0  0  0  0  0  0
   19.3360  -33.2940   35.2940 C   0  0  0  0  0  0  0  0  0  0  0  0
   18.7850  -34.2320   36.0820 N   0  0  0  0  0  0  0  0  0  0  0  0
   18.7950  -33.8530   37.3680 C   0  0  0  0  0  0  0  0  0  0  0  0
   18.3250  -34.6120   38.4030 N   0  0  0  0  0  0  0  0  0  0  0  0
   18.5060  -33.9450   39.5880 C   0  0  0  0  0  0  0  0  0  0  0  0
   19.1000  -32.7340   39.2980 C   0  0  0  0  0  0  0  0  0  0  0  0
   19.2750  -32.6590   37.8850 C   0  0  0  0  0  0  0  0  0  0  0  0
   19.2530  -29.0770   38.9970 C   0  0  0  0  0  0  0  0  0  0  0  0
   18.5520  -27.9120   39.3230 C   0  0  0  0  0  0  0  0  0  0  0  0
   20.1780  -22.1414   38.7676 H   0  0  0  0  0  0  0  0  0  0  0  0
   19.1420  -21.2809   36.6669 H   0  0  0  0  0  0  0  0  0  0  0  0
   17.3501  -22.5900   35.5296 H   0  0  0  0  0  0  0  0  0  0  0  0
   16.5852  -24.7613   36.4940 H   0  0  0  0  0  0  0  0  0  0  0  0
   18.3674  -26.4967   36.2235 H   0  0  0  0  0  0  0  0  0  0  0  0
   19.6189  -28.5722   35.6487 H   0  0  0  0  0  0  0  0  0  0  0  0
   21.3300  -30.4200   37.2390 H   0  0  0  0  0  0  0  0  0  0  0  0
   19.3799  -33.5324   34.2210 H   0  0  0  0  0  0  0  0  0  0  0  0
   17.9170  -35.5040   38.3130 H   0  0  0  0  0  0  0  0  0  0  0  0
   18.2280  -34.3095   40.5879 H   0  0  0  0  0  0  0  0  0  0  0  0
   19.3877  -31.9628   40.0278 H   0  0  0  0  0  0  0  0  0  0  0  0
   19.4803  -29.8126   39.7826 H   0  0  0  0  0  0  0  0  0  0  0  0
   18.2306  -27.7366   40.3603 H   0  0  0  0  0  0  0  0  0  0  0  0
  1  2  1  0
  2  3  2  0
  3  4  1  0
  4  5  2  0
  5  6  1  0
  6  7  2  0
  7  8  1  0
  8  9  1  0
  9 10  2  0
 10 11  1  0
 11 12  2  0
 12 13  1  0
 13 14  1  0
 14 15  2  0
 15 16  1  0
 16 17  2  0
 17 18  1  0
 18 19  1  0
 19 20  1  0
 20 21  2  0
 21 22  1  0
 12 23  1  0
 23 24  2  0
  7  2  1  0
 24  9  1  0
 22 14  1  0
 22 18  2  0
  3 25  1  0
  4 26  1  0
  5 27  1  0
  6 28  1  0
 10 29  1  0
 11 30  1  0
 13 31  1  0
 16 32  1  0
 19 33  1  0
 20 34  1  0
 21 35  1  0
 23 36  1  0
 24 37  1  0
M  END
>  <meeko>  (4) 
{"is_sidechain": [false], "free_energy": -8.407, "intermolecular_energy": -9.765, "internal_energy": -0.752}

$$$$
native_9IV_out
     RDKit          3D

 37 40  0  0  0  0  0  0  0  0999 V2000
   22.6280  -26.0560   45.3950 Cl  0  0  0  0  0  0  0  0  0  0  0  0
   23.2720  -27.3370   44.4350 C   0  0  0  0  0  0  0  0  0  0  0  0
   24.2150  -28.1930   45.0090 C   0  0  0  0  0  0  0  0  0  0  0  0
   24.7550  -29.2410   44.2590 C   0  0  0  0  0  0  0  0  0  0  0  0
   24.3500  -29.4370   42.9390 C   0  0  0  0  0  0  0  0  0  0  0  0
   23.4070  -28.5840   42.3620 C   0  0  0  0  0  0  0  0  0  0  0  0
   22.8800  -27.5200   43.1050 C   0  0  0  0  0  0  0  0  0  0  0  0
   21.9210  -26.6920   42.5650 O   0  0  0  0  0  0  0  0  0  0  0  0
   21.3350  -27.0980   41.3880 C   0  0  0  0  0  0  0  0  0  0  0  0
   21.7430  -26.6380   40.1350 C   0  0  0  0  0  0  0  0  0  0  0  0
   21.0770  -27.0740   38.9870 C   0  0  0  0  0  0  0  0  0  0  0  0
   20.0000  -27.9670   39.0710 C   0  0  0  0  0  0  0  0  0  0  0  0
   19.3510  -28.3440   37.8760 N   0  0  0  0  0  0  0  0  0  0  0  0
   19.6210  -29.4520   37.0580 C   0  0  0  0  0  0  0  0  0  0  0  0
   20.0110  -29.1890   35.7850 N   0  0  0  0  0  0  0  0  0  0  0  0
   20.2900  -30.2240   34.9680 C   0  0  0  0  0  0  0  0  0  0  0  0
   20.2490  -31.5370   35.2460 N   0  0  0  0  0  0  0  0  0  0  0  0
   19.8910  -31.7520   36.5200 C   0  0  0  0  0  0  0  0  0  0  0  0
   19.7880  -32.9870   37.0990 N   0  0  0  0  0  0  0  0  0  0  0  0
   19.4260  -32.8530   38.4150 C   0  0  0  0  0  0  0  0  0  0  0  0
   19.2940  -31.5060   38.6770 C   0  0  0  0  0  0  0  0  0  0  0  0
   19.5730  -30.7960   37.4730 C   0  0  0  0  0  0  0  0  0  0  0  0
   19.5760  -28.3830   40.3380 C   0  0  0  0  0  0  0  0  0  0  0  0
   20.2380  -27.9510   41.4910 C   0  0  0  0  0  0  0  0  0  0  0  0
   24.5324  -28.0420   46.0513 H   0  0  0  0  0  0  0  0  0  0  0  0
   25.5005  -29.9123   44.7103 H   0  0  0  0  0  0  0  0  0  0  0  0
   24.7740  -30.2647   42.3515 H   0  0  0  0  0  0  0  0  0  0  0  0
   23.0784  -28.7475   41.3250 H   0  0  0  0  0  0  0  0  0  0  0  0
   22.5852  -25.9353   40.0518 H   0  0  0  0  0  0  0  0  0  0  0  0
   21.4031  -26.7106   38.0013 H   0  0  0  0  0  0  0  0  0  0  0  0
   18.6190  -27.7570   37.5790 H   0  0  0  0  0  0  0  0  0  0  0  0
   20.5894  -29.9594   33.9431 H   0  0  0  0  0  0  0  0  0  0  0  0
   19.9480  -33.8430   36.6400 H   0  0  0  0  0  0  0  0  0  0  0  0
   19.2693  -33.6724   39.1320 H   0  0  0  0  0  0  0  0  0  0  0  0
   19.0216  -31.0583   39.6441 H   0  0  0  0  0  0  0  0  0  0  0  0
   18.7119  -29.0577   40.4278 H   0  0  0  0  0  0  0  0  0  0  0  0
   19.8926  -28.2848   42.4806 H   0  0  0  0  0  0  0  0  0  0  0  0
  1  2  1  0
  2  3  2  0
  3  4  1  0
  4  5  2  0
  5  6  1  0
  6  7  2  0
  7  8  1  0
  8  9  1  0
  9 10  2  0
 10 11  1  0
 11 12  2  0
 12 13  1  0
 13 14  1  0
 14 15  2  0
 15 16  1  0
 16 17  2  0
 17 18  1  0
 18 19  1  0
 19 20  1  0
 20 21  2  0
 21 22  1  0
 12 23  1  0
 23 24  2  0
  7  2  1  0
 24  9  1  0
 22 14  1  0
 22 18  2  0
  3 25  1  0
  4 26  1  0
  5 27  1  0
  6 28  1  0
 10 29  1  0
 11 30  1  0
 13 31  1  0
 16 32  1  0
 19 33  1  0
 20 34  1  0
 21 35  1  0
 23 36  1  0
 24 37  1  0
M  END
>  <meeko>  (5) 
{"is_sidechain": [false], "free_energy": -8.059, "intermolecular_energy": -9.477, "internal_energy": -0.61}

$$$$
native_9IV_out
     RDKit          3D

 37 40  0  0  0  0  0  0  0  0999 V2000
   19.6770  -32.5940   35.5390 Cl  0  0  0  0  0  0  0  0  0  0  0  0
   19.3170  -32.9390   37.1900 C   0  0  0  0  0  0  0  0  0  0  0  0
   18.6340  -34.1200   37.4930 C   0  0  0  0  0  0  0  0  0  0  0  0
   18.3280  -34.4300   38.8210 C   0  0  0  0  0  0  0  0  0  0  0  0
   18.7090  -33.5640   39.8460 C   0  0  0  0  0  0  0  0  0  0  0  0
   19.3910  -32.3830   39.5470 C   0  0  0  0  0  0  0  0  0  0  0  0
   19.6800  -32.0600   38.2160 C   0  0  0  0  0  0  0  0  0  0  0  0
   20.3870  -30.9190   37.9060 O   0  0  0  0  0  0  0  0  0  0  0  0
   19.6700  -29.7510   37.7880 C   0  0  0  0  0  0  0  0  0  0  0  0
   19.6510  -28.9830   36.6230 C   0  0  0  0  0  0  0  0  0  0  0  0
   18.9220  -27.7910   36.5910 C   0  0  0  0  0  0  0  0  0  0  0  0
   18.2070  -27.3500   37.7140 C   0  0  0  0  0  0  0  0  0  0  0  0
   17.5170  -26.1240   37.6260 N   0  0  0  0  0  0  0  0  0  0  0  0
   18.0440  -24.8260   37.7150 C   0  0  0  0  0  0  0  0  0  0  0  0
   17.8850  -24.0280   36.6280 N   0  0  0  0  0  0  0  0  0  0  0  0
   18.3670  -22.7700   36.6740 C   0  0  0  0  0  0  0  0  0  0  0  0
   18.9990  -22.1590   37.6890 N   0  0  0  0  0  0  0  0  0  0  0  0
   19.1060  -22.9700   38.7520 C   0  0  0  0  0  0  0  0  0  0  0  0
   19.6800  -22.6160   39.9420 N   0  0  0  0  0  0  0  0  0  0  0  0
   19.6040  -23.6650   40.8230 C   0  0  0  0  0  0  0  0  0  0  0  0
   18.9720  -24.7070   40.1780 C   0  0  0  0  0  0  0  0  0  0  0  0
   18.6640  -24.2810   38.8530 C   0  0  0  0  0  0  0  0  0  0  0  0
   18.2730  -28.1110   38.8870 C   0  0  0  0  0  0  0  0  0  0  0  0
   19.0010  -29.3040   38.9260 C   0  0  0  0  0  0  0  0  0  0  0  0
   18.3371  -34.8059   36.6859 H   0  0  0  0  0  0  0  0  0  0  0  0
   17.7863  -35.3576   39.0581 H   0  0  0  0  0  0  0  0  0  0  0  0
   18.4718  -33.8119   40.8911 H   0  0  0  0  0  0  0  0  0  0  0  0
   19.7011  -31.7066   40.3571 H   0  0  0  0  0  0  0  0  0  0  0  0
   20.2073  -29.3143   35.7338 H   0  0  0  0  0  0  0  0  0  0  0  0
   18.9088  -27.1892   35.6703 H   0  0  0  0  0  0  0  0  0  0  0  0
   16.5440  -26.1860   37.4840 H   0  0  0  0  0  0  0  0  0  0  0  0
   18.2245  -22.1676   35.7647 H   0  0  0  0  0  0  0  0  0  0  0  0
   20.0860  -21.7410   40.1380 H   0  0  0  0  0  0  0  0  0  0  0  0
   19.9794  -23.6733   41.8569 H   0  0  0  0  0  0  0  0  0  0  0  0
   18.7455  -25.6930   40.6097 H   0  0  0  0  0  0  0  0  0  0  0  0
   17.7458  -27.7663   39.7888 H   0  0  0  0  0  0  0  0  0  0  0  0
   19.0458  -29.8903   39.8556 H   0  0  0  0  0  0  0  0  0  0  0  0
  1  2  1  0
  2  3  2  0
  3  4  1  0
  4  5  2  0
  5  6  1  0
  6  7  2  0
  7  8  1  0
  8  9  1  0
  9 10  2  0
 10 11  1  0
 11 12  2  0
 12 13  1  0
 13 14  1  0
 14 15  2  0
 15 16  1  0
 16 17  2  0
 17 18  1  0
 18 19  1  0
 19 20  1  0
 20 21  2  0
 21 22  1  0
 12 23  1  0
 23 24  2  0
  7  2  1  0
 24  9  1  0
 22 14  1  0
 22 18  2  0
  3 25  1  0
  4 26  1  0
  5 27  1  0
  6 28  1  0
 10 29  1  0
 11 30  1  0
 13 31  1  0
 16 32  1  0
 19 33  1  0
 20 34  1  0
 21 35  1  0
 23 36  1  0
 24 37  1  0
M  END
>  <meeko>  (6) 
{"is_sidechain": [false], "free_energy": -8.043, "intermolecular_energy": -9.389, "internal_energy": -0.679}

$$$$
native_9IV_out
     RDKit          3D

 37 40  0  0  0  0  0  0  0  0999 V2000
   19.4750  -33.0000   35.3900 Cl  0  0  0  0  0  0  0  0  0  0  0  0
   19.1950  -33.2120   37.0790 C   0  0  0  0  0  0  0  0  0  0  0  0
   18.5550  -34.3770   37.5100 C   0  0  0  0  0  0  0  0  0  0  0  0
   18.3150  -34.5800   38.8700 C   0  0  0  0  0  0  0  0  0  0  0  0
   18.7190  -33.6230   39.8020 C   0  0  0  0  0  0  0  0  0  0  0  0
   19.3600  -32.4590   39.3760 C   0  0  0  0  0  0  0  0  0  0  0  0
   19.5830  -32.2430   38.0100 C   0  0  0  0  0  0  0  0  0  0  0  0
   20.2490  -31.1180   37.5750 O   0  0  0  0  0  0  0  0  0  0  0  0
   19.6170  -29.9090   37.7530 C   0  0  0  0  0  0  0  0  0  0  0  0
   19.5860  -28.9140   36.7750 C   0  0  0  0  0  0  0  0  0  0  0  0
   18.9500  -27.6990   37.0440 C   0  0  0  0  0  0  0  0  0  0  0  0
   18.3420  -27.4590   38.2840 C   0  0  0  0  0  0  0  0  0  0  0  0
   17.7430  -26.2010   38.5010 N   0  0  0  0  0  0  0  0  0  0  0  0
   18.3260  -25.0500   39.0540 C   0  0  0  0  0  0  0  0  0  0  0  0
   18.6130  -25.0890   40.3800 N   0  0  0  0  0  0  0  0  0  0  0  0
   19.1830  -24.0090   40.9510 C   0  0  0  0  0  0  0  0  0  0  0  0
   19.5360  -22.8520   40.3690 N   0  0  0  0  0  0  0  0  0  0  0  0
   19.2660  -22.8670   39.0550 C   0  0  0  0  0  0  0  0  0  0  0  0
   19.5380  -21.8380   38.1960 N   0  0  0  0  0  0  0  0  0  0  0  0
   19.1610  -22.1850   36.9240 C   0  0  0  0  0  0  0  0  0  0  0  0
   18.6350  -23.4590   36.9770 C   0  0  0  0  0  0  0  0  0  0  0  0
   18.6830  -23.8960   38.3320 C   0  0  0  0  0  0  0  0  0  0  0  0
   18.4210  -28.4520   39.2680 C   0  0  0  0  0  0  0  0  0  0  0  0
   19.0560  -29.6700   39.0060 C   0  0  0  0  0  0  0  0  0  0  0  0
   18.2402  -35.1345   36.7772 H   0  0  0  0  0  0  0  0  0  0  0  0
   17.8068  -35.4953   39.2075 H   0  0  0  0  0  0  0  0  0  0  0  0
   18.5319  -33.7864   40.8736 H   0  0  0  0  0  0  0  0  0  0  0  0
   19.6900  -31.7115   40.1124 H   0  0  0  0  0  0  0  0  0  0  0  0
   20.0598  -29.0852   35.7972 H   0  0  0  0  0  0  0  0  0  0  0  0
   18.9261  -26.9180   36.2698 H   0  0  0  0  0  0  0  0  0  0  0  0
   16.8000  -26.1200   38.2330 H   0  0  0  0  0  0  0  0  0  0  0  0
   19.3842  -24.0855   42.0297 H   0  0  0  0  0  0  0  0  0  0  0  0
   19.9440  -20.9780   38.4520 H   0  0  0  0  0  0  0  0  0  0  0  0
   19.2601  -21.5603   36.0241 H   0  0  0  0  0  0  0  0  0  0  0  0
   18.2472  -24.0354   36.1241 H   0  0  0  0  0  0  0  0  0  0  0  0
   17.9784  -28.2719   40.2588 H   0  0  0  0  0  0  0  0  0  0  0  0
   19.1127  -30.4400   39.7895 H   0  0  0  0  0  0  0  0  0  0  0  0
  1  2  1  0
  2  3  2  0
  3  4  1  0
  4  5  2  0
  5  6  1  0
  6  7  2  0
  7  8  1  0
  8  9  1  0
  9 10  2  0
 10 11  1  0
 11 12  2  0
 12 13  1  0
 13 14  1  0
 14 15  2  0
 15 16  1  0
 16 17  2  0
 17 18  1  0
 18 19  1  0
 19 20  1  0
 20 21  2  0
 21 22  1  0
 12 23  1  0
 23 24  2  0
  7  2  1  0
 24  9  1  0
 22 14  1  0
 22 18  2  0
  3 25  1  0
  4 26  1  0
  5 27  1  0
  6 28  1  0
 10 29  1  0
 11 30  1  0
 13 31  1  0
 16 32  1  0
 19 33  1  0
 20 34  1  0
 21 35  1  0
 23 36  1  0
 24 37  1  0
M  END
>  <meeko>  (7) 
{"is_sidechain": [false], "free_energy": -7.986, "intermolecular_energy": -9.875, "internal_energy": -0.122}

$$$$
native_9IV_out
     RDKit          3D

 37 40  0  0  0  0  0  0  0  0999 V2000
   19.5120  -24.2600   40.1850 Cl  0  0  0  0  0  0  0  0  0  0  0  0
   18.9190  -23.8110   38.6290 C   0  0  0  0  0  0  0  0  0  0  0  0
   19.4030  -22.6390   38.0410 C   0  0  0  0  0  0  0  0  0  0  0  0
   18.9450  -22.2480   36.7820 C   0  0  0  0  0  0  0  0  0  0  0  0
   18.0070  -23.0290   36.1050 C   0  0  0  0  0  0  0  0  0  0  0  0
   17.5220  -24.2000   36.6880 C   0  0  0  0  0  0  0  0  0  0  0  0
   17.9640  -24.5840   37.9600 C   0  0  0  0  0  0  0  0  0  0  0  0
   17.5250  -25.7570   38.5340 O   0  0  0  0  0  0  0  0  0  0  0  0
   18.2500  -26.8950   38.2620 C   0  0  0  0  0  0  0  0  0  0  0  0
   18.6850  -27.2330   36.9800 C   0  0  0  0  0  0  0  0  0  0  0  0
   19.3890  -28.4230   36.7800 C   0  0  0  0  0  0  0  0  0  0  0  0
   19.6670  -29.2880   37.8480 C   0  0  0  0  0  0  0  0  0  0  0  0
   20.3560  -30.4880   37.5730 N   0  0  0  0  0  0  0  0  0  0  0  0
   19.8730  -31.6320   36.9190 C   0  0  0  0  0  0  0  0  0  0  0  0
   19.1130  -32.4810   37.6570 N   0  0  0  0  0  0  0  0  0  0  0  0
   18.6200  -33.5870   37.0660 C   0  0  0  0  0  0  0  0  0  0  0  0
   18.7680  -33.9840   35.7910 N   0  0  0  0  0  0  0  0  0  0  0  0
   19.4970  -33.1040   35.0900 C   0  0  0  0  0  0  0  0  0  0  0  0
   19.7920  -33.2260   33.7610 N   0  0  0  0  0  0  0  0  0  0  0  0
   20.5300  -32.1460   33.3480 C   0  0  0  0  0  0  0  0  0  0  0  0
   20.7100  -31.3220   34.4390 C   0  0  0  0  0  0  0  0  0  0  0  0
   20.0690  -31.9300   35.5580 C   0  0  0  0  0  0  0  0  0  0  0  0
   19.1840  -28.9540   39.1190 C   0  0  0  0  0  0  0  0  0  0  0  0
   18.4790  -27.7660   39.3260 C   0  0  0  0  0  0  0  0  0  0  0  0
   20.1455  -22.0243   38.5710 H   0  0  0  0  0  0  0  0  0  0  0  0
   19.3238  -21.3231   36.3226 H   0  0  0  0  0  0  0  0  0  0  0  0
   17.6500  -22.7210   35.1112 H   0  0  0  0  0  0  0  0  0  0  0  0
   16.7923  -24.8217   36.1484 H   0  0  0  0  0  0  0  0  0  0  0  0
   18.4747  -26.5658   36.1311 H   0  0  0  0  0  0  0  0  0  0  0  0
   19.7309  -28.6857   35.7680 H   0  0  0  0  0  0  0  0  0  0  0  0
   21.2910  -30.5280   37.8790 H   0  0  0  0  0  0  0  0  0  0  0  0
   18.0206  -34.2485   37.7087 H   0  0  0  0  0  0  0  0  0  0  0  0
   19.5170  -33.9760   33.1860 H   0  0  0  0  0  0  0  0  0  0  0  0
   20.9095  -31.9692   32.3308 H   0  0  0  0  0  0  0  0  0  0  0  0
   21.2522  -30.3649   34.4449 H   0  0  0  0  0  0  0  0  0  0  0  0
   19.3618  -29.6350   39.9644 H   0  0  0  0  0  0  0  0  0  0  0  0
   18.1041  -27.5175   40.3298 H   0  0  0  0  0  0  0  0  0  0  0  0
  1  2  1  0
  2  3  2  0
  3  4  1  0
  4  5  2  0
  5  6  1  0
  6  7  2  0
  7  8  1  0
  8  9  1  0
  9 10  2  0
 10 11  1  0
 11 12  2  0
 12 13  1  0
 13 14  1  0
 14 15  2  0
 15 16  1  0
 16 17  2  0
 17 18  1  0
 18 19  1  0
 19 20  1  0
 20 21  2  0
 21 22  1  0
 12 23  1  0
 23 24  2  0
  7  2  1  0
 24  9  1  0
 22 14  1  0
 22 18  2  0
  3 25  1  0
  4 26  1  0
  5 27  1  0
  6 28  1  0
 10 29  1  0
 11 30  1  0
 13 31  1  0
 16 32  1  0
 19 33  1  0
 20 34  1  0
 21 35  1  0
 23 36  1  0
 24 37  1  0
M  END
>  <meeko>  (8) 
{"is_sidechain": [false], "free_energy": -7.968, "intermolecular_energy": -9.253, "internal_energy": -0.722}

$$$$
native_9IV_out
     RDKit          3D

 37 40  0  0  0  0  0  0  0  0999 V2000
   23.2520  -26.6350   45.2930 Cl  0  0  0  0  0  0  0  0  0  0  0  0
   23.6900  -27.9340   44.2450 C   0  0  0  0  0  0  0  0  0  0  0  0
   24.3820  -29.0220   44.7820 C   0  0  0  0  0  0  0  0  0  0  0  0
   24.7500  -30.0900   43.9610 C   0  0  0  0  0  0  0  0  0  0  0  0
   24.4230  -30.0750   42.6050 C   0  0  0  0  0  0  0  0  0  0  0  0
   23.7320  -28.9890   42.0640 C   0  0  0  0  0  0  0  0  0  0  0  0
   23.3800  -27.9080   42.8810 C   0  0  0  0  0  0  0  0  0  0  0  0
   22.6630  -26.8460   42.3730 O   0  0  0  0  0  0  0  0  0  0  0  0
   21.7740  -27.1200   41.3600 C   0  0  0  0  0  0  0  0  0  0  0  0
   21.8970  -26.5910   40.0740 C   0  0  0  0  0  0  0  0  0  0  0  0
   20.9340  -26.8910   39.1070 C   0  0  0  0  0  0  0  0  0  0  0  0
   19.8410  -27.7170   39.4060 C   0  0  0  0  0  0  0  0  0  0  0  0
   18.8890  -27.9560   38.3930 N   0  0  0  0  0  0  0  0  0  0  0  0
   19.0990  -28.0170   37.0060 C   0  0  0  0  0  0  0  0  0  0  0  0
   19.6810  -29.1460   36.5280 N   0  0  0  0  0  0  0  0  0  0  0  0
   19.8910  -29.2520   35.2000 C   0  0  0  0  0  0  0  0  0  0  0  0
   19.5840  -28.3670   34.2380 N   0  0  0  0  0  0  0  0  0  0  0  0
   18.9830  -27.2830   34.7490 C   0  0  0  0  0  0  0  0  0  0  0  0
   18.5320  -26.2250   34.0090 N   0  0  0  0  0  0  0  0  0  0  0  0
   17.9470  -25.2980   34.8330 C   0  0  0  0  0  0  0  0  0  0  0  0
   18.0310  -25.7760   36.1240 C   0  0  0  0  0  0  0  0  0  0  0  0
   18.7030  -27.0320   36.0840 C   0  0  0  0  0  0  0  0  0  0  0  0
   19.7100  -28.2020   40.7130 C   0  0  0  0  0  0  0  0  0  0  0  0
   20.6700  -27.9060   41.6850 C   0  0  0  0  0  0  0  0  0  0  0  0
   24.6372  -29.0376   45.8519 H   0  0  0  0  0  0  0  0  0  0  0  0
   25.2986  -30.9444   44.3842 H   0  0  0  0  0  0  0  0  0  0  0  0
   24.7098  -30.9196   41.9613 H   0  0  0  0  0  0  0  0  0  0  0  0
   23.4645  -28.9828   40.9970 H   0  0  0  0  0  0  0  0  0  0  0  0
   22.7482  -25.9409   39.8231 H   0  0  0  0  0  0  0  0  0  0  0  0
   21.0349  -26.4724   38.0948 H   0  0  0  0  0  0  0  0  0  0  0  0
   17.9640  -28.0980   38.6970 H   0  0  0  0  0  0  0  0  0  0  0  0
   20.3747  -30.1805   34.8624 H   0  0  0  0  0  0  0  0  0  0  0  0
   18.6150  -26.1410   33.0310 H   0  0  0  0  0  0  0  0  0  0  0  0
   17.4931  -24.3459   34.5209 H   0  0  0  0  0  0  0  0  0  0  0  0
   17.6470  -25.2760   37.0254 H   0  0  0  0  0  0  0  0  0  0  0  0
   18.8416  -28.8231   40.9779 H   0  0  0  0  0  0  0  0  0  0  0  0
   20.5539  -28.2940   42.7077 H   0  0  0  0  0  0  0  0  0  0  0  0
  1  2  1  0
  2  3  2  0
  3  4  1  0
  4  5  2  0
  5  6  1  0
  6  7  2  0
  7  8  1  0
  8  9  1  0
  9 10  2  0
 10 11  1  0
 11 12  2  0
 12 13  1  0
 13 14  1  0
 14 15  2  0
 15 16  1  0
 16 17  2  0
 17 18  1  0
 18 19  1  0
 19 20  1  0
 20 21  2  0
 21 22  1  0
 12 23  1  0
 23 24  2  0
  7  2  1  0
 24  9  1  0
 22 14  1  0
 22 18  2  0
  3 25  1  0
  4 26  1  0
  5 27  1  0
  6 28  1  0
 10 29  1  0
 11 30  1  0
 13 31  1  0
 16 32  1  0
 19 33  1  0
 20 34  1  0
 21 35  1  0
 23 36  1  0
 24 37  1  0
M  END
>  <meeko>  (9) 
{"is_sidechain": [false], "free_energy": -7.93, "intermolecular_energy": -9.278, "internal_energy": -0.651}

$$$$
