native_DTQ_out
     RDKit          3D

 37 39  0  0  0  0  0  0  0  0999 V2000
   67.6250   24.8990   22.0600 C   0  0  0  0  0  0  0  0  0  0  0  0
   67.0900   23.7670   21.3830 O   0  0  0  0  0  0  0  0  0  0  0  0
   66.2580   22.9620   22.1190 C   0  0  0  0  0  0  0  0  0  0  0  0
   66.9400   22.0270   22.9090 C   0  0  0  0  0  0  0  0  0  0  0  0
   66.2810   21.1280   23.7350 C   0  0  0  0  0  0  0  0  0  0  0  0
   67.0060   20.2480   24.4340 N   0  0  0  0  0  0  0  0  0  0  0  0
   66.3330   19.3800   25.1970 C   0  0  0  0  0  0  0  0  0  0  0  0
   65.0070   19.3220   25.3430 N   0  0  0  0  0  0  0  0  0  0  0  0
   64.2960   20.2370   24.6610 C   0  0  0  0  0  0  0  0  0  0  0  0
   62.8990   20.1600   24.8670 N   0  0  0  0  0  0  0  0  0  0  0  0
   62.2380   19.3200   25.8020 C   0  0  0  0  0  0  0  0  0  0  0  0
   62.3370   17.9210   25.7700 C   0  0  0  0  0  0  0  0  0  0  0  0
   61.6290   17.1380   26.6860 C   0  0  0  0  0  0  0  0  0  0  0  0
   60.8020   17.7430   27.6280 C   0  0  0  0  0  0  0  0  0  0  0  0
   60.6780   19.1270   27.6420 C   0  0  0  0  0  0  0  0  0  0  0  0
   59.8480   19.6790   28.5730 O   0  0  0  0  0  0  0  0  0  0  0  0
   61.3770   19.9160   26.7330 C   0  0  0  0  0  0  0  0  0  0  0  0
   64.8860   21.1750   23.7930 C   0  0  0  0  0  0  0  0  0  0  0  0
   64.1890   22.1220   22.9940 C   0  0  0  0  0  0  0  0  0  0  0  0
   64.8630   23.0350   22.1790 C   0  0  0  0  0  0  0  0  0  0  0  0
   64.2320   24.0010   21.4420 O   0  0  0  0  0  0  0  0  0  0  0  0
   63.1770   23.5870   20.5800 C   0  0  0  0  0  0  0  0  0  0  0  0
   67.5520   24.7446   23.1467 H   0  0  0  0  0  0  0  0  0  0  0  0
   68.6802   25.0298   21.7783 H   0  0  0  0  0  0  0  0  0  0  0  0
   67.0562   25.7974   21.7783 H   0  0  0  0  0  0  0  0  0  0  0  0
   68.0392   22.0050   22.8729 H   0  0  0  0  0  0  0  0  0  0  0  0
   66.9282   18.6441   25.7574 H   0  0  0  0  0  0  0  0  0  0  0  0
   62.3330   20.7440   24.3130 H   0  0  0  0  0  0  0  0  0  0  0  0
   62.9770   17.4364   25.0180 H   0  0  0  0  0  0  0  0  0  0  0  0
   61.7255   16.0425   26.6624 H   0  0  0  0  0  0  0  0  0  0  0  0
   60.2506   17.1300   28.3561 H   0  0  0  0  0  0  0  0  0  0  0  0
   59.6930   20.6030   28.5730 H   0  0  0  0  0  0  0  0  0  0  0  0
   61.2533   21.0090   26.7455 H   0  0  0  0  0  0  0  0  0  0  0  0
   63.0894   22.1363   23.0181 H   0  0  0  0  0  0  0  0  0  0  0  0
   62.3209   23.2510   21.1835 H   0  0  0  0  0  0  0  0  0  0  0  0
   62.8695   24.4311   19.9453 H   0  0  0  0  0  0  0  0  0  0  0  0
   63.5256   22.7590   19.9453 H   0  0  0  0  0  0  0  0  0  0  0  0
  1  2  1  0
  2  3  1  0
  3  4  2  0
  4  5  1  0
  5  6  2  0
  6  7  1  0
  7  8  2  0
  8  9  1  0
  9 10  1  0
 10 11  1  0
 11 12  2  0
 12 13  1  0
 13 14  2  0
 14 15  1  0
 15 16  1  0
 15 17  2  0
  9 18  2  0
 18 19  1  0
 19 20  2  0
 20 21  1  0
 21 22  1  0
 20  3  1  0
 18  5  1  0
 17 11  1  0
  1 23  1  0
  1 24  1  0
  1 25  1  0
  4 26  1  0
  7 27  1  0
 10 28  1  0
 12 29  1  0
 13 30  1  0
 14 31  1  0
 16 32  1  0
 17 33  1  0
 19 34  1  0
 22 35  1  0
 22 36  1  0
 22 37  1  0
M  END
>  <meeko>  (1) 
{"is_sidechain": [false], "free_energy": -8.484, "intermolecular_energy": -10.716, "internal_energy": -0.146}

$$$$
native_DTQ_out
     RDKit          3D

 37 39  0  0  0  0  0  0  0  0999 V2000
   67.6560   25.0590   17.7850 C   0  0  0  0  0  0  0  0  0  0  0  0
   68.1680   25.0080   19.1120 O   0  0  0  0  0  0  0  0  0  0  0  0
   67.2950   24.5780   20.0790 C   0  0  0  0  0  0  0  0  0  0  0  0
   65.9770   24.4420   19.6220 C   0  0  0  0  0  0  0  0  0  0  0  0
   64.9450   24.0080   20.4420 C   0  0  0  0  0  0  0  0  0  0  0  0
   63.7100   23.9350   19.9350 N   0  0  0  0  0  0  0  0  0  0  0  0
   62.7380   23.5390   20.7640 C   0  0  0  0  0  0  0  0  0  0  0  0
   62.8880   23.1900   22.0450 N   0  0  0  0  0  0  0  0  0  0  0  0
   64.1420   23.2360   22.5280 C   0  0  0  0  0  0  0  0  0  0  0  0
   64.2600   22.8300   23.8770 N   0  0  0  0  0  0  0  0  0  0  0  0
   64.3510   21.4920   24.3410 C   0  0  0  0  0  0  0  0  0  0  0  0
   63.2370   20.7620   24.7820 C   0  0  0  0  0  0  0  0  0  0  0  0
   63.3890   19.4620   25.2720 C   0  0  0  0  0  0  0  0  0  0  0  0
   64.6540   18.8870   25.3450 C   0  0  0  0  0  0  0  0  0  0  0  0
   65.7630   19.6180   24.9390 C   0  0  0  0  0  0  0  0  0  0  0  0
   66.9860   19.0230   25.0380 O   0  0  0  0  0  0  0  0  0  0  0  0
   65.6240   20.9150   24.4510 C   0  0  0  0  0  0  0  0  0  0  0  0
   65.2410   23.6760   21.7660 C   0  0  0  0  0  0  0  0  0  0  0  0
   66.5760   23.8110   22.2360 C   0  0  0  0  0  0  0  0  0  0  0  0
   67.6120   24.2320   21.3960 C   0  0  0  0  0  0  0  0  0  0  0  0
   68.9190   24.3170   21.7930 O   0  0  0  0  0  0  0  0  0  0  0  0
   69.3350   25.5160   22.4370 C   0  0  0  0  0  0  0  0  0  0  0  0
   66.5619   25.1680   17.8181 H   0  0  0  0  0  0  0  0  0  0  0  0
   68.0942   25.9179   17.2557 H   0  0  0  0  0  0  0  0  0  0  0  0
   67.9162   24.1305   17.2557 H   0  0  0  0  0  0  0  0  0  0  0  0
   65.7522   24.6886   18.5738 H   0  0  0  0  0  0  0  0  0  0  0  0
   61.7188   23.4966   20.3523 H   0  0  0  0  0  0  0  0  0  0  0  0
   64.2830   23.5410   24.5570 H   0  0  0  0  0  0  0  0  0  0  0  0
   62.2361   21.2164   24.7418 H   0  0  0  0  0  0  0  0  0  0  0  0
   62.5072   18.8924   25.6005 H   0  0  0  0  0  0  0  0  0  0  0  0
   64.7749   17.8606   25.7217 H   0  0  0  0  0  0  0  0  0  0  0  0
   67.3840   18.6420   24.2800 H   0  0  0  0  0  0  0  0  0  0  0  0
   66.5143   21.4875   24.1515 H   0  0  0  0  0  0  0  0  0  0  0  0
   66.7999   23.5783   23.2875 H   0  0  0  0  0  0  0  0  0  0  0  0
   69.2883   25.3815   23.5278 H   0  0  0  0  0  0  0  0  0  0  0  0
   70.3676   25.7522   22.1405 H   0  0  0  0  0  0  0  0  0  0  0  0
   68.6706   26.3410   22.1405 H   0  0  0  0  0  0  0  0  0  0  0  0
  1  2  1  0
  2  3  1  0
  3  4  2  0
  4  5  1  0
  5  6  2  0
  6  7  1  0
  7  8  2  0
  8  9  1  0
  9 10  1  0
 10 11  1  0
 11 12  2  0
 12 13  1  0
 13 14  2  0
 14 15  1  0
 15 16  1  0
 15 17  2  0
  9 18  2  0
 18 19  1  0
 19 20  2  0
 20 21  1  0
 21 22  1  0
 20  3  1  0
 18  5  1  0
 17 11  1  0
  1 23  1  0
  1 24  1  0
  1 25  1  0
  4 26  1  0
  7 27  1  0
 10 28  1  0
 12 29  1  0
 13 30  1  0
 14 31  1  0
 16 32  1  0
 17 33  1  0
 19 34  1  0
 22 35  1  0
 22 36  1  0
 22 37  1  0
M  END
>  <meeko>  (2) 
{"is_sidechain": [false], "free_energy": -7.912, "intermolecular_energy": -9.457, "internal_energy": -0.682}

$$$$
native_DTQ_out
     RDKit          3D

 37 39  0  0  0  0  0  0  0  0999 V2000
   67.6650   25.0960   17.6950 C   0  0  0  0  0  0  0  0  0  0  0  0
   68.1660   25.1310   19.0270 O   0  0  0  0  0  0  0  0  0  0  0  0
   67.3070   24.6990   20.0060 C   0  0  0  0  0  0  0  0  0  0  0  0
   65.9920   24.5150   19.5560 C   0  0  0  0  0  0  0  0  0  0  0  0
   64.9750   24.0720   20.3870 C   0  0  0  0  0  0  0  0  0  0  0  0
   63.7410   23.9520   19.8850 N   0  0  0  0  0  0  0  0  0  0  0  0
   62.7820   23.5480   20.7260 C   0  0  0  0  0  0  0  0  0  0  0  0
   62.9440   23.2330   22.0130 N   0  0  0  0  0  0  0  0  0  0  0  0
   64.1970   23.3260   22.4930 C   0  0  0  0  0  0  0  0  0  0  0  0
   64.3290   22.9550   23.8500 N   0  0  0  0  0  0  0  0  0  0  0  0
   64.6850   21.6680   24.3340 C   0  0  0  0  0  0  0  0  0  0  0  0
   66.0110   21.2180   24.3950 C   0  0  0  0  0  0  0  0  0  0  0  0
   66.3030   19.9250   24.8370 C   0  0  0  0  0  0  0  0  0  0  0  0
   65.2730   19.0640   25.2050 C   0  0  0  0  0  0  0  0  0  0  0  0
   63.9550   19.4960   25.1160 C   0  0  0  0  0  0  0  0  0  0  0  0
   62.9750   18.6180   25.4730 O   0  0  0  0  0  0  0  0  0  0  0  0
   63.6530   20.7820   24.6740 C   0  0  0  0  0  0  0  0  0  0  0  0
   65.2820   23.7790   21.7180 C   0  0  0  0  0  0  0  0  0  0  0  0
   66.6140   23.9620   22.1810 C   0  0  0  0  0  0  0  0  0  0  0  0
   67.6360   24.3930   21.3300 C   0  0  0  0  0  0  0  0  0  0  0  0
   68.9400   24.5230   21.7210 O   0  0  0  0  0  0  0  0  0  0  0  0
   69.3560   25.7920   22.2150 C   0  0  0  0  0  0  0  0  0  0  0  0
   66.5679   25.0194   17.7178 H   0  0  0  0  0  0  0  0  0  0  0  0
   67.9574   26.0168   17.1690 H   0  0  0  0  0  0  0  0  0  0  0  0
   68.0826   24.2248   17.1690 H   0  0  0  0  0  0  0  0  0  0  0  0
   65.7584   24.7305   18.5029 H   0  0  0  0  0  0  0  0  0  0  0  0
   61.7635   23.4678   20.3182 H   0  0  0  0  0  0  0  0  0  0  0  0
   64.1600   23.6540   24.5230 H   0  0  0  0  0  0  0  0  0  0  0  0
   66.8288   21.8885   24.0923 H   0  0  0  0  0  0  0  0  0  0  0  0
   67.3482   19.5870   24.8942 H   0  0  0  0  0  0  0  0  0  0  0  0
   65.5005   18.0493   25.5636 H   0  0  0  0  0  0  0  0  0  0  0  0
   63.0110   18.1900   26.3050 H   0  0  0  0  0  0  0  0  0  0  0  0
   62.6040   21.1026   24.5917 H   0  0  0  0  0  0  0  0  0  0  0  0
   66.8464   23.7590   23.2368 H   0  0  0  0  0  0  0  0  0  0  0  0
   69.3510   25.7769   23.3149 H   0  0  0  0  0  0  0  0  0  0  0  0
   70.3726   26.0100   21.8559 H   0  0  0  0  0  0  0  0  0  0  0  0
   68.6657   26.5695   21.8559 H   0  0  0  0  0  0  0  0  0  0  0  0
  1  2  1  0
  2  3  1  0
  3  4  2  0
  4  5  1  0
  5  6  2  0
  6  7  1  0
  7  8  2  0
  8  9  1  0
  9 10  1  0
 10 11  1  0
 11 12  2  0
 12 13  1  0
 13 14  2  0
 14 15  1  0
 15 16  1  0
 15 17  2  0
  9 18  2  0
 18 19  1  0
 19 20  2  0
 20 21  1  0
 21 22  1  0
 20  3  1  0
 18  5  1  0
 17 11  1  0
  1 23  1  0
  1 24  1  0
  1 25  1  0
  4 26  1  0
  7 27  1  0
 10 28  1  0
 12 29  1  0
 13 30  1  0
 14 31  1  0
 16 32  1  0
 17 33  1  0
 19 34  1  0
 22 35  1  0
 22 36  1  0
 22 37  1  0
M  END
>  <meeko>  (3) 
{"is_sidechain": [false], "free_energy": -7.737, "intermolecular_energy": -9.281, "internal_energy": -0.637}

$$$$
native_DTQ_out
     RDKit          3D

 37 39  0  0  0  0  0  0  0  0999 V2000
   67.6950   28.4440   21.4570 C   0  0  0  0  0  0  0  0  0  0  0  0
   68.2580   27.1820   21.1170 O   0  0  0  0  0  0  0  0  0  0  0  0
   67.5080   26.0800   21.4400 C   0  0  0  0  0  0  0  0  0  0  0  0
   66.2010   26.3910   21.8410 C   0  0  0  0  0  0  0  0  0  0  0  0
   65.2800   25.4180   22.1980 C   0  0  0  0  0  0  0  0  0  0  0  0
   64.0620   25.8020   22.5980 N   0  0  0  0  0  0  0  0  0  0  0  0
   63.2120   24.8350   22.9600 C   0  0  0  0  0  0  0  0  0  0  0  0
   63.4560   23.5220   22.9410 N   0  0  0  0  0  0  0  0  0  0  0  0
   64.6730   23.1530   22.5040 C   0  0  0  0  0  0  0  0  0  0  0  0
   64.8790   21.7550   22.4710 N   0  0  0  0  0  0  0  0  0  0  0  0
   64.9920   20.9000   23.6000 C   0  0  0  0  0  0  0  0  0  0  0  0
   66.2020   20.3040   23.9850 C   0  0  0  0  0  0  0  0  0  0  0  0
   66.2490   19.4350   25.0780 C   0  0  0  0  0  0  0  0  0  0  0  0
   65.0870   19.1380   25.7840 C   0  0  0  0  0  0  0  0  0  0  0  0
   63.8810   19.7020   25.3860 C   0  0  0  0  0  0  0  0  0  0  0  0
   62.7640   19.3760   26.0970 O   0  0  0  0  0  0  0  0  0  0  0  0
   63.8220   20.5680   24.2970 C   0  0  0  0  0  0  0  0  0  0  0  0
   65.6680   24.0780   22.1340 C   0  0  0  0  0  0  0  0  0  0  0  0
   66.9920   23.7550   21.7280 C   0  0  0  0  0  0  0  0  0  0  0  0
   67.9070   24.7430   21.3530 C   0  0  0  0  0  0  0  0  0  0  0  0
   69.1690   24.4710   20.8990 O   0  0  0  0  0  0  0  0  0  0  0  0
   69.4390   24.7100   19.5210 C   0  0  0  0  0  0  0  0  0  0  0  0
   67.6509   28.5429   22.5517 H   0  0  0  0  0  0  0  0  0  0  0  0
   68.3197   29.2482   21.0411 H   0  0  0  0  0  0  0  0  0  0  0  0
   66.6792   28.5164   21.0411 H   0  0  0  0  0  0  0  0  0  0  0  0
   65.8946   27.4470   21.8736 H   0  0  0  0  0  0  0  0  0  0  0  0
   62.2170   25.1512   23.3064 H   0  0  0  0  0  0  0  0  0  0  0  0
   64.9490   21.3340   21.5840 H   0  0  0  0  0  0  0  0  0  0  0  0
   67.1213   20.5226   23.4218 H   0  0  0  0  0  0  0  0  0  0  0  0
   67.2059   18.9849   25.3810 H   0  0  0  0  0  0  0  0  0  0  0  0
   65.1230   18.4617   26.6508 H   0  0  0  0  0  0  0  0  0  0  0  0
   62.7530   18.5990   26.6210 H   0  0  0  0  0  0  0  0  0  0  0  0
   62.8565   20.9918   23.9835 H   0  0  0  0  0  0  0  0  0  0  0  0
   67.3042   22.7004   21.7085 H   0  0  0  0  0  0  0  0  0  0  0  0
   70.2598   25.4365   19.4288 H   0  0  0  0  0  0  0  0  0  0  0  0
   69.7282   23.7665   19.0350 H   0  0  0  0  0  0  0  0  0  0  0  0
   68.5376   25.1115   19.0350 H   0  0  0  0  0  0  0  0  0  0  0  0
  1  2  1  0
  2  3  1  0
  3  4  2  0
  4  5  1  0
  5  6  2  0
  6  7  1  0
  7  8  2  0
  8  9  1  0
  9 10  1  0
 10 11  1  0
 11 12  2  0
 12 13  1  0
 13 14  2  0
 14 15  1  0
 15 16  1  0
 15 17  2  0
  9 18  2  0
 18 19  1  0
 19 20  2  0
 20 21  1  0
 21 22  1  0
 20  3  1  0
 18  5  1  0
 17 11  1  0
  1 23  1  0
  1 24  1  0
  1 25  1  0
  4 26  1  0
  7 27  1  0
 10 28  1  0
 12 29  1  0
 13 30  1  0
 14 31  1  0
 16 32  1  0
 17 33  1  0
 19 34  1  0
 22 35  1  0
 22 36  1  0
 22 37  1  0
M  END
>  <meeko>  (4) 
{"is_sidechain": [false], "free_energy": -7.239, "intermolecular_energy": -8.997, "internal_energy": -0.293}

$$$$
native_DTQ_out
     RDKit          3D

 37 39  0  0  0  0  0  0  0  0999 V2000
   61.7460   16.4800   25.8590 C   0  0  0  0  0  0  0  0  0  0  0  0
   62.8790   17.0920   26.4670 O   0  0  0  0  0  0  0  0  0  0  0  0
   63.2110   18.3390   26.0040 C   0  0  0  0  0  0  0  0  0  0  0  0
   64.5240   18.4250   25.5170 C   0  0  0  0  0  0  0  0  0  0  0  0
   65.0500   19.5960   24.9950 C   0  0  0  0  0  0  0  0  0  0  0  0
   66.3220   19.6010   24.5800 N   0  0  0  0  0  0  0  0  0  0  0  0
   66.8000   20.7570   24.1080 C   0  0  0  0  0  0  0  0  0  0  0  0
   66.1230   21.9020   23.9930 N   0  0  0  0  0  0  0  0  0  0  0  0
   64.8360   21.8710   24.3820 C   0  0  0  0  0  0  0  0  0  0  0  0
   64.1480   23.0940   24.2150 N   0  0  0  0  0  0  0  0  0  0  0  0
   64.0190   23.8220   23.0020 C   0  0  0  0  0  0  0  0  0  0  0  0
   64.4450   25.1510   22.8630 C   0  0  0  0  0  0  0  0  0  0  0  0
   64.2540   25.8360   21.6600 C   0  0  0  0  0  0  0  0  0  0  0  0
   63.6190   25.2060   20.5930 C   0  0  0  0  0  0  0  0  0  0  0  0
   63.1680   23.9000   20.7380 C   0  0  0  0  0  0  0  0  0  0  0  0
   62.5400   23.3250   19.6730 O   0  0  0  0  0  0  0  0  0  0  0  0
   63.3510   23.2100   21.9330 C   0  0  0  0  0  0  0  0  0  0  0  0
   64.2300   20.7260   24.9340 C   0  0  0  0  0  0  0  0  0  0  0  0
   62.8980   20.6460   25.4250 C   0  0  0  0  0  0  0  0  0  0  0  0
   62.3720   19.4550   25.9330 C   0  0  0  0  0  0  0  0  0  0  0  0
   61.0780   19.3210   26.3580 O   0  0  0  0  0  0  0  0  0  0  0  0
   60.7250   19.9300   27.5960 C   0  0  0  0  0  0  0  0  0  0  0  0
   61.0647   16.1120   26.6403 H   0  0  0  0  0  0  0  0  0  0  0  0
   61.2222   17.2179   25.2335 H   0  0  0  0  0  0  0  0  0  0  0  0
   62.0759   15.6374   25.2335 H   0  0  0  0  0  0  0  0  0  0  0  0
   65.1604   17.5284   25.5508 H   0  0  0  0  0  0  0  0  0  0  0  0
   67.8510   20.7655   23.7836 H   0  0  0  0  0  0  0  0  0  0  0  0
   63.7180   23.4780   25.0130 H   0  0  0  0  0  0  0  0  0  0  0  0
   64.9335   25.6584   23.7079 H   0  0  0  0  0  0  0  0  0  0  0  0
   64.6054   26.8732   21.5560 H   0  0  0  0  0  0  0  0  0  0  0  0
   63.4754   25.7389   19.6415 H   0  0  0  0  0  0  0  0  0  0  0  0
   62.8860   22.5410   19.2930 H   0  0  0  0  0  0  0  0  0  0  0  0
   62.9708   22.1832   22.0383 H   0  0  0  0  0  0  0  0  0  0  0  0
   62.2648   21.5453   25.4045 H   0  0  0  0  0  0  0  0  0  0  0  0
   61.0862   19.3068   28.4274 H   0  0  0  0  0  0  0  0  0  0  0  0
   61.1851   20.9272   27.6584 H   0  0  0  0  0  0  0  0  0  0  0  0
   59.6310   20.0264   27.6584 H   0  0  0  0  0  0  0  0  0  0  0  0
  1  2  1  0
  2  3  1  0
  3  4  2  0
  4  5  1  0
  5  6  2  0
  6  7  1  0
  7  8  2  0
  8  9  1  0
  9 10  1  0
 10 11  1  0
 11 12  2  0
 12 13  1  0
 13 14  2  0
 14 15  1  0
 15 16  1  0
 15 17  2  0
  9 18  2  0
 18 19  1  0
 19 20  2  0
 20 21  1  0
 21 22  1  0
 20  3  1  0
 18  5  1  0
 17 11  1  0
  1 23  1  0
  1 24  1  0
  1 25  1  0
  4 26  1  0
  7 27  1  0
 10 28  1  0
 12 29  1  0
 13 30  1  0
 14 31  1  0
 16 32  1  0
 17 33  1  0
 19 34  1  0
 22 35  1  0
 22 36  1  0
 22 37  1  0
M  END
>  <meeko>  (5) 
{"is_sidechain": [false], "free_energy": -7.224, "intermolecular_energy": -8.96, "internal_energy": -0.311}

$$$$
native_DTQ_out
     RDKit          3D

 37 39  0  0  0  0  0  0  0  0999 V2000
   67.7810   28.9910   21.5970 C   0  0  0  0  0  0  0  0  0  0  0  0
   68.5620   27.8020   21.5410 O   0  0  0  0  0  0  0  0  0  0  0  0
   67.8640   26.6210   21.5530 C   0  0  0  0  0  0  0  0  0  0  0  0
   66.5220   26.7600   21.1710 C   0  0  0  0  0  0  0  0  0  0  0  0
   65.6500   25.6840   21.1080 C   0  0  0  0  0  0  0  0  0  0  0  0
   64.3770   25.9080   20.7630 N   0  0  0  0  0  0  0  0  0  0  0  0
   63.5610   24.8490   20.7400 C   0  0  0  0  0  0  0  0  0  0  0  0
   63.9020   23.5850   21.0080 N   0  0  0  0  0  0  0  0  0  0  0  0
   65.1930   23.3730   21.3190 C   0  0  0  0  0  0  0  0  0  0  0  0
   65.5160   22.0200   21.5660 N   0  0  0  0  0  0  0  0  0  0  0  0
   65.2440   21.2990   22.7590 C   0  0  0  0  0  0  0  0  0  0  0  0
   64.0670   21.4740   23.5010 C   0  0  0  0  0  0  0  0  0  0  0  0
   63.8670   20.7730   24.6930 C   0  0  0  0  0  0  0  0  0  0  0  0
   64.8490   19.9050   25.1640 C   0  0  0  0  0  0  0  0  0  0  0  0
   66.0300   19.7530   24.4480 C   0  0  0  0  0  0  0  0  0  0  0  0
   66.9710   18.9040   24.9500 O   0  0  0  0  0  0  0  0  0  0  0  0
   66.2390   20.4500   23.2600 C   0  0  0  0  0  0  0  0  0  0  0  0
   66.1380   24.4120   21.4160 C   0  0  0  0  0  0  0  0  0  0  0  0
   67.4980   24.2640   21.8040 C   0  0  0  0  0  0  0  0  0  0  0  0
   68.3730   25.3530   21.8470 C   0  0  0  0  0  0  0  0  0  0  0  0
   69.7010   25.2430   22.1560 O   0  0  0  0  0  0  0  0  0  0  0  0
   70.0500   25.1000   23.5290 C   0  0  0  0  0  0  0  0  0  0  0  0
   67.6022   29.2631   22.6477 H   0  0  0  0  0  0  0  0  0  0  0  0
   68.3193   29.8074   21.0933 H   0  0  0  0  0  0  0  0  0  0  0  0
   66.8180   28.8212   21.0933 H   0  0  0  0  0  0  0  0  0  0  0  0
   66.1468   27.7609   20.9114 H   0  0  0  0  0  0  0  0  0  0  0  0
   62.5098   25.0359   20.4755 H   0  0  0  0  0  0  0  0  0  0  0  0
   65.9720   21.5310   20.8440 H   0  0  0  0  0  0  0  0  0  0  0  0
   63.2943   22.1694   23.1414 H   0  0  0  0  0  0  0  0  0  0  0  0
   62.9337   20.9067   25.2596 H   0  0  0  0  0  0  0  0  0  0  0  0
   64.6907   19.3435   26.0966 H   0  0  0  0  0  0  0  0  0  0  0  0
   66.9800   18.0050   24.6840 H   0  0  0  0  0  0  0  0  0  0  0  0
   67.1871   20.3334   22.7145 H   0  0  0  0  0  0  0  0  0  0  0  0
   67.8712   23.2661   22.0775 H   0  0  0  0  0  0  0  0  0  0  0  0
   69.2145   25.4423   24.1573 H   0  0  0  0  0  0  0  0  0  0  0  0
   70.2620   24.0425   23.7452 H   0  0  0  0  0  0  0  0  0  0  0  0
   70.9431   25.7047   23.7452 H   0  0  0  0  0  0  0  0  0  0  0  0
  1  2  1  0
  2  3  1  0
  3  4  2  0
  4  5  1  0
  5  6  2  0
  6  7  1  0
  7  8  2  0
  8  9  1  0
  9 10  1  0
 10 11  1  0
 11 12  2  0
 12 13  1  0
 13 14  2  0
 14 15  1  0
 15 16  1  0
 15 17  2  0
  9 18  2  0
 18 19  1  0
 19 20  2  0
 20 21  1  0
 21 22  1  0
 20  3  1  0
 18  5  1  0
 17 11  1  0
  1 23  1  0
  1 24  1  0
  1 25  1  0
  4 26  1  0
  7 27  1  0
 10 28  1  0
 12 29  1  0
 13 30  1  0
 14 31  1  0
 16 32  1  0
 17 33  1  0
 19 34  1  0
 22 35  1  0
 22 36  1  0
 22 37  1  0
M  END
>  <meeko>  (6) 
{"is_sidechain": [false], "free_energy": -7.148, "intermolecular_energy": -8.652, "internal_energy": -0.523}

$$$$
native_DTQ_out
     RDKit          3D

 37 39  0  0  0  0  0  0  0  0999 V2000
   67.3810   28.6240   21.1120 C   0  0  0  0  0  0  0  0  0  0  0  0
   68.1730   27.5320   21.5670 O   0  0  0  0  0  0  0  0  0  0  0  0
   67.5230   26.3320   21.7020 C   0  0  0  0  0  0  0  0  0  0  0  0
   66.1340   26.4250   21.5330 C   0  0  0  0  0  0  0  0  0  0  0  0
   65.2980   25.3230   21.6190 C   0  0  0  0  0  0  0  0  0  0  0  0
   63.9800   25.5030   21.4750 N   0  0  0  0  0  0  0  0  0  0  0  0
   63.2050   24.4200   21.5920 C   0  0  0  0  0  0  0  0  0  0  0  0
   63.6220   23.1720   21.8190 N   0  0  0  0  0  0  0  0  0  0  0  0
   64.9520   23.0030   21.9270 C   0  0  0  0  0  0  0  0  0  0  0  0
   65.3530   21.6640   22.1370 N   0  0  0  0  0  0  0  0  0  0  0  0
   65.1730   20.9150   23.3300 C   0  0  0  0  0  0  0  0  0  0  0  0
   66.1890   20.1330   23.8990 C   0  0  0  0  0  0  0  0  0  0  0  0
   65.9450   19.3790   25.0500 C   0  0  0  0  0  0  0  0  0  0  0  0
   64.6800   19.3830   25.6320 C   0  0  0  0  0  0  0  0  0  0  0  0
   63.6630   20.1320   25.0530 C   0  0  0  0  0  0  0  0  0  0  0  0
   62.4360   20.0990   25.6470 O   0  0  0  0  0  0  0  0  0  0  0  0
   63.8950   20.8850   23.9050 C   0  0  0  0  0  0  0  0  0  0  0  0
   65.8680   24.0710   21.8640 C   0  0  0  0  0  0  0  0  0  0  0  0
   67.2750   23.9690   22.0360 C   0  0  0  0  0  0  0  0  0  0  0  0
   68.1120   25.0840   21.9290 C   0  0  0  0  0  0  0  0  0  0  0  0
   69.4750   25.0190   22.0280 O   0  0  0  0  0  0  0  0  0  0  0  0
   70.0540   25.2380   23.3100 C   0  0  0  0  0  0  0  0  0  0  0  0
   66.9824   29.1736   21.9775 H   0  0  0  0  0  0  0  0  0  0  0  0
   68.0014   29.2984   20.5035 H   0  0  0  0  0  0  0  0  0  0  0  0
   66.5473   28.2438   20.5035 H   0  0  0  0  0  0  0  0  0  0  0  0
   65.6912   27.4101   21.3242 H   0  0  0  0  0  0  0  0  0  0  0  0
   62.1201   24.5715   21.4917 H   0  0  0  0  0  0  0  0  0  0  0  0
   65.7980   21.2080   21.3870 H   0  0  0  0  0  0  0  0  0  0  0  0
   67.1863   20.1131   23.4353 H   0  0  0  0  0  0  0  0  0  0  0  0
   66.7533   18.7815   25.4968 H   0  0  0  0  0  0  0  0  0  0  0  0
   64.4873   18.7977   26.5432 H   0  0  0  0  0  0  0  0  0  0  0  0
   61.6610   20.1110   25.1210 H   0  0  0  0  0  0  0  0  0  0  0  0
   63.0740   21.4573   23.4485 H   0  0  0  0  0  0  0  0  0  0  0  0
   67.7173   22.9869   22.2592 H   0  0  0  0  0  0  0  0  0  0  0  0
   69.3296   24.9640   24.0911 H   0  0  0  0  0  0  0  0  0  0  0  0
   70.9576   24.6195   23.4147 H   0  0  0  0  0  0  0  0  0  0  0  0
   70.3221   26.2997   23.4147 H   0  0  0  0  0  0  0  0  0  0  0  0
  1  2  1  0
  2  3  1  0
  3  4  2  0
  4  5  1  0
  5  6  2  0
  6  7  1  0
  7  8  2  0
  8  9  1  0
  9 10  1  0
 10 11  1  0
 11 12  2  0
 12 13  1  0
 13 14  2  0
 14 15  1  0
 15 16  1  0
 15 17  2  0
  9 18  2  0
 18 19  1  0
 19 20  2  0
 20 21  1  0
 21 22  1  0
 20  3  1  0
 18  5  1  0
 17 11  1  0
  1 23  1  0
  1 24  1  0
  1 25  1  0
  4 26  1  0
  7 27  1  0
 10 28  1  0
 12 29  1  0
 13 30  1  0
 14 31  1  0
 16 32  1  0
 17 33  1  0
 19 34  1  0
 22 35  1  0
 22 36  1  0
 22 37  1  0
M  END
>  <meeko>  (7) 
{"is_sidechain": [false], "free_energy": -7.066, "intermolecular_energy": -8.773, "internal_energy": -0.298}

$$$$
native_DTQ_out
     RDKit          3D

 37 39  0  0  0  0  0  0  0  0999 V2000
   64.5610   28.0670   19.0290 C   0  0  0  0  0  0  0  0  0  0  0  0
   64.2390   27.5560   20.3180 O   0  0  0  0  0  0  0  0  0  0  0  0
   64.8790   26.4000   20.6850 C   0  0  0  0  0  0  0  0  0  0  0  0
   66.1720   26.6100   21.1870 C   0  0  0  0  0  0  0  0  0  0  0  0
   66.9800   25.5710   21.6220 C   0  0  0  0  0  0  0  0  0  0  0  0
   68.2120   25.8550   22.0590 N   0  0  0  0  0  0  0  0  0  0  0  0
   68.9700   24.8230   22.4440 C   0  0  0  0  0  0  0  0  0  0  0  0
   68.6060   23.5380   22.4550 N   0  0  0  0  0  0  0  0  0  0  0  0
   67.3530   23.2740   22.0460 C   0  0  0  0  0  0  0  0  0  0  0  0
   66.9990   21.9070   22.1010 N   0  0  0  0  0  0  0  0  0  0  0  0
   66.3490   21.2550   23.1830 C   0  0  0  0  0  0  0  0  0  0  0  0
   67.0430   20.5240   24.1580 C   0  0  0  0  0  0  0  0  0  0  0  0
   66.3510   19.8640   25.1770 C   0  0  0  0  0  0  0  0  0  0  0  0
   64.9600   19.9120   25.2200 C   0  0  0  0  0  0  0  0  0  0  0  0
   64.2680   20.6090   24.2380 C   0  0  0  0  0  0  0  0  0  0  0  0
   62.9070   20.6210   24.3090 O   0  0  0  0  0  0  0  0  0  0  0  0
   64.9480   21.2680   23.2160 C   0  0  0  0  0  0  0  0  0  0  0  0
   66.4740   24.2700   21.5780 C   0  0  0  0  0  0  0  0  0  0  0  0
   65.1640   24.0490   21.0710 C   0  0  0  0  0  0  0  0  0  0  0  0
   64.3510   25.1060   20.6510 C   0  0  0  0  0  0  0  0  0  0  0  0
   63.0650   24.9420   20.2140 O   0  0  0  0  0  0  0  0  0  0  0  0
   62.5320   23.6220   20.2130 C   0  0  0  0  0  0  0  0  0  0  0  0
   65.1446   28.9931   19.1370 H   0  0  0  0  0  0  0  0  0  0  0  0
   65.1535   27.3225   18.4770 H   0  0  0  0  0  0  0  0  0  0  0  0
   63.6337   28.2802   18.4770 H   0  0  0  0  0  0  0  0  0  0  0  0
   66.5594   27.6383   21.2374 H   0  0  0  0  0  0  0  0  0  0  0  0
   69.9903   25.0543   22.7840 H   0  0  0  0  0  0  0  0  0  0  0  0
   67.2230   21.3550   21.3170 H   0  0  0  0  0  0  0  0  0  0  0  0
   68.1410   20.4697   24.1204 H   0  0  0  0  0  0  0  0  0  0  0  0
   66.9056   19.3061   25.9458 H   0  0  0  0  0  0  0  0  0  0  0  0
   64.4130   19.4014   26.0262 H   0  0  0  0  0  0  0  0  0  0  0  0
   62.4290   19.8160   24.2710 H   0  0  0  0  0  0  0  0  0  0  0  0
   64.3848   21.7989   22.4344 H   0  0  0  0  0  0  0  0  0  0  0  0
   64.7804   23.0200   21.0076 H   0  0  0  0  0  0  0  0  0  0  0  0
   62.3944   23.2813   21.2498 H   0  0  0  0  0  0  0  0  0  0  0  0
   61.5620   23.6186   19.6942 H   0  0  0  0  0  0  0  0  0  0  0  0
   63.2277   22.9461   19.6942 H   0  0  0  0  0  0  0  0  0  0  0  0
  1  2  1  0
  2  3  1  0
  3  4  2  0
  4  5  1  0
  5  6  2  0
  6  7  1  0
  7  8  2  0
  8  9  1  0
  9 10  1  0
 10 11  1  0
 11 12  2  0
 12 13  1  0
 13 14  2  0
 14 15  1  0
 15 16  1  0
 15 17  2  0
  9 18  2  0
 18 19  1  0
 19 20  2  0
 20 21  1  0
 21 22  1  0
 20  3  1  0
 18  5  1  0
 17 11  1  0
  1 23  1  0
  1 24  1  0
  1 25  1  0
  4 26  1  0
  7 27  1  0
 10 28  1  0
 12 29  1  0
 13 30  1  0
 14 31  1  0
 16 32  1  0
 17 33  1  0
 19 34  1  0
 22 35  1  0
 22 36  1  0
 22 37  1  0
M  END
>  <meeko>  (8) 
{"is_sidechain": [false], "free_energy": -6.902, "intermolecular_energy": -8.247, "internal_energy": -0.616}

$$$$
native_DTQ_out
     RDKit          3D

 37 39  0  0  0  0  0  0  0  0999 V2000
   66.4820   29.3850   18.7610 C   0  0  0  0  0  0  0  0  0  0  0  0
   65.8460   28.9140   19.9440 O   0  0  0  0  0  0  0  0  0  0  0  0
   66.0630   27.5970   20.2610 C   0  0  0  0  0  0  0  0  0  0  0  0
   67.2160   27.3910   21.0330 C   0  0  0  0  0  0  0  0  0  0  0  0
   67.6060   26.1330   21.4670 C   0  0  0  0  0  0  0  0  0  0  0  0
   68.7360   26.0200   22.1740 N   0  0  0  0  0  0  0  0  0  0  0  0
   69.0930   24.7870   22.5510 C   0  0  0  0  0  0  0  0  0  0  0  0
   68.4170   23.6610   22.3070 N   0  0  0  0  0  0  0  0  0  0  0  0
   67.2660   23.7980   21.6250 C   0  0  0  0  0  0  0  0  0  0  0  0
   66.5680   22.5870   21.4140 N   0  0  0  0  0  0  0  0  0  0  0  0
   65.8960   21.8270   22.4080 C   0  0  0  0  0  0  0  0  0  0  0  0
   64.5970   22.1250   22.8440 C   0  0  0  0  0  0  0  0  0  0  0  0
   63.9970   21.3720   23.8570 C   0  0  0  0  0  0  0  0  0  0  0  0
   64.6960   20.3270   24.4560 C   0  0  0  0  0  0  0  0  0  0  0  0
   65.9940   20.0480   24.0470 C   0  0  0  0  0  0  0  0  0  0  0  0
   66.6480   19.0250   24.6670 O   0  0  0  0  0  0  0  0  0  0  0  0
   66.6020   20.7950   23.0400 C   0  0  0  0  0  0  0  0  0  0  0  0
   66.8060   25.0370   21.1390 C   0  0  0  0  0  0  0  0  0  0  0  0
   65.6350   25.2390   20.3570 C   0  0  0  0  0  0  0  0  0  0  0  0
   65.2410   26.5130   19.9390 C   0  0  0  0  0  0  0  0  0  0  0  0
   64.0920   26.7570   19.2390 O   0  0  0  0  0  0  0  0  0  0  0  0
   62.9040   26.9990   19.9860 C   0  0  0  0  0  0  0  0  0  0  0  0
   67.3386   30.0193   19.0329 H   0  0  0  0  0  0  0  0  0  0  0  0
   66.8340   28.5281   18.1679 H   0  0  0  0  0  0  0  0  0  0  0  0
   65.7650   29.9716   18.1679 H   0  0  0  0  0  0  0  0  0  0  0  0
   67.8338   28.2598   21.3042 H   0  0  0  0  0  0  0  0  0  0  0  0
   70.0323   24.6914   23.1154 H   0  0  0  0  0  0  0  0  0  0  0  0
   66.5450   22.2390   20.4940 H   0  0  0  0  0  0  0  0  0  0  0  0
   64.0455   22.9586   22.3847 H   0  0  0  0  0  0  0  0  0  0  0  0
   62.9720   21.6049   24.1814 H   0  0  0  0  0  0  0  0  0  0  0  0
   64.2236   19.7267   25.2475 H   0  0  0  0  0  0  0  0  0  0  0  0
   67.5840   19.0250   24.7110 H   0  0  0  0  0  0  0  0  0  0  0  0
   67.6373   20.5742   22.7410 H   0  0  0  0  0  0  0  0  0  0  0  0
   65.0235   24.3695   20.0739 H   0  0  0  0  0  0  0  0  0  0  0  0
   63.1312   26.9527   21.0613 H   0  0  0  0  0  0  0  0  0  0  0  0
   62.5108   27.9957   19.7369 H   0  0  0  0  0  0  0  0  0  0  0  0
   62.1523   26.2355   19.7369 H   0  0  0  0  0  0  0  0  0  0  0  0
  1  2  1  0
  2  3  1  0
  3  4  2  0
  4  5  1  0
  5  6  2  0
  6  7  1  0
  7  8  2  0
  8  9  1  0
  9 10  1  0
 10 11  1  0
 11 12  2  0
 12 13  1  0
 13 14  2  0
 14 15  1  0
 15 16  1  0
 15 17  2  0
  9 18  2  0
 18 19  1  0
 19 20  2  0
 20 21  1  0
 21 22  1  0
 20  3  1  0
 18  5  1  0
 17 11  1  0
  1 23  1  0
  1 24  1  0
  1 25  1  0
  4 26  1  0
  7 27  1  0
 10 28  1  0
 12 29  1  0
 13 30  1  0
 14 31  1  0
 16 32  1  0
 17 33  1  0
 19 34  1  0
 22 35  1  0
 22 36  1  0
 22 37  1  0
M  END
>  <meeko>  (9) 
{"is_sidechain": [false], "free_energy": -6.844, "intermolecular_energy": -8.189, "internal_energy": -0.601}

$$$$
