
 OpenBabel08202620133D

 45 48  0  0  0  0  0  0  0  0999 V2000
    5.1458    1.6393   -1.7004 C   0  0  0  0  0  0  0  0  0  0  0  0
    5.0633    2.0633   -0.2350 C   0  0  0  0  0  0  0  0  0  0  0  0
    5.3047    3.5639   -0.0931 C   0  0  0  0  0  0  0  0  0  0  0  0
    6.0958    1.3893    0.4837 O   0  0  0  0  0  0  0  0  0  0  0  0
    3.7599    1.6925    0.3384 C   0  0  0  0  0  0  0  0  0  0  0  0
    2.6962    1.3810    0.8023 C   0  0  0  0  0  0  0  0  0  0  0  0
    1.4294    1.0053    1.3510 C   0  0  0  0  0  0  0  0  0  0  0  0
    1.1293    1.3114    2.6763 C   0  0  0  0  0  0  0  0  0  0  0  0
   -0.0996    0.9486    3.2347 C   0  0  0  0  0  0  0  0  0  0  0  0
   -1.0120    0.2721    2.4154 C   0  0  0  0  0  0  0  0  0  0  0  0
   -2.2649   -0.1992    2.7023 N   0  0  0  0  0  0  0  0  0  0  0  0
   -2.8288   -0.8255    1.6126 C   0  0  0  0  0  0  0  0  0  0  0  0
   -1.9183   -0.7363    0.5633 C   0  0  0  0  0  0  0  0  0  0  0  0
   -0.7562   -0.0472    1.0845 C   0  0  0  0  0  0  0  0  0  0  0  0
    0.4999    0.3285    0.5508 C   0  0  0  0  0  0  0  0  0  0  0  0
   -2.1083   -1.2431   -0.8048 C   0  0  0  0  0  0  0  0  0  0  0  0
   -1.3167   -0.6405   -1.7228 N   0  0  0  0  0  0  0  0  0  0  0  0
   -1.3841   -1.0586   -2.9840 C   0  0  0  0  0  0  0  0  0  0  0  0
   -0.5851   -0.4218   -3.9110 N   0  0  0  0  0  0  0  0  0  0  0  0
   -2.1992   -2.0119   -3.4231 N   0  0  0  0  0  0  0  0  0  0  0  0
   -2.9817   -2.5887   -2.4956 C   0  0  0  0  0  0  0  0  0  0  0  0
   -2.9974   -2.2440   -1.1554 C   0  0  0  0  0  0  0  0  0  0  0  0
   -3.9339   -2.9445   -0.2222 C   0  0  0  0  0  0  0  0  0  0  0  0
   -4.8305   -1.9582    0.5173 C   0  0  0  0  0  0  0  0  0  0  0  0
   -4.1809   -1.4344    1.7859 C   0  0  0  0  0  0  0  0  0  0  0  0
    6.0992    1.9171   -2.0989 H   0  0  0  0  0  0  0  0  0  0  0  0
    4.3715    2.1253   -2.2564 H   0  0  0  0  0  0  0  0  0  0  0  0
    5.0245    0.5786   -1.7722 H   0  0  0  0  0  0  0  0  0  0  0  0
    6.2557    3.8136   -0.5151 H   0  0  0  0  0  0  0  0  0  0  0  0
    5.2931    3.8306    0.9431 H   0  0  0  0  0  0  0  0  0  0  0  0
    4.5344    4.0993   -0.6078 H   0  0  0  0  0  0  0  0  0  0  0  0
    6.9587    1.6291    0.1110 H   0  0  0  0  0  0  0  0  0  0  0  0
    1.8230    1.8124    3.2532 H   0  0  0  0  0  0  0  0  0  0  0  0
   -0.3267    1.1714    4.2164 H   0  0  0  0  0  0  0  0  0  0  0  0
   -2.7069   -0.1027    3.5767 H   0  0  0  0  0  0  0  0  0  0  0  0
    0.7313    0.1034   -0.4294 H   0  0  0  0  0  0  0  0  0  0  0  0
    0.0316    0.2897   -3.6233 H   0  0  0  0  0  0  0  0  0  0  0  0
   -0.6316   -0.6788   -4.8602 H   0  0  0  0  0  0  0  0  0  0  0  0
   -3.6158   -3.3420   -2.8044 H   0  0  0  0  0  0  0  0  0  0  0  0
   -3.3621   -3.4978    0.4932 H   0  0  0  0  0  0  0  0  0  0  0  0
   -4.5568   -3.5957   -0.7992 H   0  0  0  0  0  0  0  0  0  0  0  0
   -5.7448   -2.4503    0.7759 H   0  0  0  0  0  0  0  0  0  0  0  0
   -5.0072   -1.1248   -0.1302 H   0  0  0  0  0  0  0  0  0  0  0  0
   -4.0890   -2.2515    2.4706 H   0  0  0  0  0  0  0  0  0  0  0  0
   -4.8146   -0.6467    2.1362 H   0  0  0  0  0  0  0  0  0  0  0  0
  1  2  1  0  0  0  0
  1 26  1  0  0  0  0
  1 27  1  0  0  0  0
  1 28  1  0  0  0  0
  2  3  1  0  0  0  0
  2  4  1  0  0  0  0
  2  5  1  0  0  0  0
  3 29  1  0  0  0  0
  3 30  1  0  0  0  0
  3 31  1  0  0  0  0
  4 32  1  0  0  0  0
  5  6  3  0  0  0  0
  6  7  1  0  0  0  0
  7  8  2  0  0  0  0
  8  9  1  0  0  0  0
  8 33  1  0  0  0  0
  9 10  2  0  0  0  0
  9 34  1  0  0  0  0
 10 11  1  0  0  0  0
 11 12  1  0  0  0  0
 11 35  1  0  0  0  0
 12 13  2  0  0  0  0
 13 14  1  0  0  0  0
 13 16  1  0  0  0  0
 14 15  2  0  0  0  0
 14 10  1  0  0  0  0
 15  7  1  0  0  0  0
 15 36  1  0  0  0  0
 16 17  2  0  0  0  0
 17 18  1  0  0  0  0
 18 19  1  0  0  0  0
 18 20  2  0  0  0  0
 19 37  1  0  0  0  0
 19 38  1  0  0  0  0
 20 21  1  0  0  0  0
 21 22  2  0  0  0  0
 21 39  1  0  0  0  0
 22 23  1  0  0  0  0
 22 16  1  0  0  0  0
 23 24  1  0  0  0  0
 23 40  1  0  0  0  0
 23 41  1  0  0  0  0
 24 25  1  0  0  0  0
 24 42  1  0  0  0  0
 24 43  1  0  0  0  0
 25 12  1  0  0  0  0
 25 44  1  0  0  0  0
 25 45  1  0  0  0  0
M  END
$$$$
