
     RDKit          3D

 26 27  0  0  0  0  0  0  0  0999 V2000
    4.7507    1.7661    0.1882 C   0  0  0  0  0  0  0  0  0  0  0  0
    3.9132    0.9050    0.2040 C   0  0  0  0  0  0  0  0  0  0  0  0
    2.8887   -0.1472    0.2223 C   0  0  0  0  0  0  0  0  0  0  0  0
    1.5677    0.4648    0.2594 N   0  0  0  0  0  0  0  0  0  0  0  0
    0.4979   -0.5247    0.3004 C   0  0  2  0  0  0  0  0  0  0  0  0
    0.3333   -1.3343   -1.0065 C   0  0  0  0  0  0  0  0  0  0  0  0
   -1.1397   -1.7634   -1.0646 C   0  0  0  0  0  0  0  0  0  0  0  0
   -1.7983   -0.6138   -0.3695 C   0  0  0  0  0  0  0  0  0  0  0  0
   -3.1367   -0.2589   -0.3919 C   0  0  0  0  0  0  0  0  0  0  0  0
   -3.5431    0.8401    0.3680 C   0  0  0  0  0  0  0  0  0  0  0  0
   -2.6177    1.5555    1.1439 C   0  0  0  0  0  0  0  0  0  0  0  0
   -1.2726    1.1814    1.1706 C   0  0  0  0  0  0  0  0  0  0  0  0
   -0.8707    0.0988    0.4026 C   0  0  0  0  0  0  0  0  0  0  0  0
    5.4881    2.5350    0.1794 H   0  0  0  0  0  0  0  0  0  0  0  0
    3.0082   -0.7757   -0.6672 H   0  0  0  0  0  0  0  0  0  0  0  0
    3.0387   -0.7801    1.1044 H   0  0  0  0  0  0  0  0  0  0  0  0
    1.4483    1.0592   -0.5593 H   0  0  0  0  0  0  0  0  0  0  0  0
    0.6213   -1.2002    1.1571 H   0  0  0  0  0  0  0  0  0  0  0  0
    0.5496   -0.7005   -1.8792 H   0  0  0  0  0  0  0  0  0  0  0  0
    1.0121   -2.1922   -1.0565 H   0  0  0  0  0  0  0  0  0  0  0  0
   -1.4805   -1.8805   -2.0970 H   0  0  0  0  0  0  0  0  0  0  0  0
   -1.3067   -2.6896   -0.5052 H   0  0  0  0  0  0  0  0  0  0  0  0
   -3.8560   -0.8174   -0.9819 H   0  0  0  0  0  0  0  0  0  0  0  0
   -4.5875    1.1423    0.3647 H   0  0  0  0  0  0  0  0  0  0  0  0
   -2.9521    2.4047    1.7346 H   0  0  0  0  0  0  0  0  0  0  0  0
   -0.5564    1.7255    1.7793 H   0  0  0  0  0  0  0  0  0  0  0  0
  1  2  3  0
  2  3  1  0
  3  4  1  0
  4  5  1  0
  5  6  1  0
  6  7  1  0
  7  8  1  0
  8  9  2  0
  9 10  1  0
 10 11  2  0
 11 12  1  0
 12 13  2  0
 13  5  1  0
 13  8  1  0
  1 14  1  0
  3 15  1  0
  3 16  1  0
  4 17  1  0
  5 18  1  1
  6 19  1  0
  6 20  1  0
  7 21  1  0
  7 22  1  0
  9 23  1  0
 10 24  1  0
 11 25  1  0
 12 26  1  0
M  END
$$$$
