
 OpenBabel09302610443D

 27 28  0  0  0  0  0  0  0  0999 V2000
    4.7507    1.7661    0.1882 C   0  0  0  0  0  0  0  0  0  0  0  0
    3.9132    0.9050    0.2040 C   0  0  0  0  0  0  0  0  0  0  0  0
    2.8887   -0.1472    0.2223 C   0  0  0  0  0  0  0  0  0  0  0  0
    1.5677    0.4648    0.2594 N   0  3  0  0  0  0  0  0  0  0  0  0
    0.4979   -0.5247    0.3004 C   0  0  2  0  0  0  0  0  0  0  0  0
    0.3333   -1.3343   -1.0065 C   0  0  0  0  0  0  0  0  0  0  0  0
   -1.1397   -1.7634   -1.0646 C   0  0  0  0  0  0  0  0  0  0  0  0
   -1.7983   -0.6138   -0.3695 C   0  0  0  0  0  0  0  0  0  0  0  0
   -3.1367   -0.2589   -0.3919 C   0  0  0  0  0  0  0  0  0  0  0  0
   -3.5431    0.8401    0.3680 C   0  0  0  0  0  0  0  0  0  0  0  0
   -2.6177    1.5555    1.1439 C   0  0  0  0  0  0  0  0  0  0  0  0
   -1.2726    1.1814    1.1706 C   0  0  0  0  0  0  0  0  0  0  0  0
   -0.8707    0.0988    0.4026 C   0  0  0  0  0  0  0  0  0  0  0  0
    5.4437    2.4786    0.1751 H   0  0  0  0  0  0  0  0  0  0  0  0
    3.0224   -0.7607    1.0887 H   0  0  0  0  0  0  0  0  0  0  0  0
    2.9791   -0.7495   -0.6574 H   0  0  0  0  0  0  0  0  0  0  0  0
    1.4498    1.0404   -0.5744 H   0  0  0  0  0  0  0  0  0  0  0  0
    1.5075    1.0234    1.1107 H   0  0  0  0  0  0  0  0  0  0  0  0
    0.7907   -1.1183    1.1411 H   0  0  0  0  0  0  0  0  0  0  0  0
    0.9695   -2.1945   -0.9921 H   0  0  0  0  0  0  0  0  0  0  0  0
    0.6026   -0.7509   -1.8621 H   0  0  0  0  0  0  0  0  0  0  0  0
   -1.3020   -2.6834   -0.5430 H   0  0  0  0  0  0  0  0  0  0  0  0
   -1.5063   -1.9510   -2.0522 H   0  0  0  0  0  0  0  0  0  0  0  0
   -3.8164   -0.7929   -0.9557 H   0  0  0  0  0  0  0  0  0  0  0  0
   -4.5338    1.1291    0.3590 H   0  0  0  0  0  0  0  0  0  0  0  0
   -2.9343    2.3654    1.6997 H   0  0  0  0  0  0  0  0  0  0  0  0
   -0.5926    1.6991    1.7491 H   0  0  0  0  0  0  0  0  0  0  0  0
  1  2  3  0  0  0  0
  1 14  1  0  0  0  0
  2  3  1  0  0  0  0
  3  4  1  0  0  0  0
  3 15  1  0  0  0  0
  3 16  1  0  0  0  0
  4  5  1  0  0  0  0
  4 17  1  0  0  0  0
  4 18  1  0  0  0  0
  5  6  1  0  0  0  0
  5 19  1  1  0  0  0
  6  7  1  0  0  0  0
  6 20  1  0  0  0  0
  6 21  1  0  0  0  0
  7  8  1  0  0  0  0
  7 22  1  0  0  0  0
  7 23  1  0  0  0  0
  8  9  2  0  0  0  0
  9 10  1  0  0  0  0
  9 24  1  0  0  0  0
 10 11  2  0  0  0  0
 10 25  1  0  0  0  0
 11 12  1  0  0  0  0
 11 26  1  0  0  0  0
 12 13  2  0  0  0  0
 12 27  1  0  0  0  0
 13  5  1  0  0  0  0
 13  8  1  0  0  0  0
M  CHG  1   4   1
M  END
$$$$
